@<TRIPOS>MOLECULE

45 47 1
SMALL
NO_CHARGES
@<TRIPOS>ATOM
1	C1    -7.2235    -0.6438     0.7677	C.3	1	noname
2	O1    -6.5038    -0.5144     0.9897	O.3	1	noname
3	C2    -5.6429    -0.1129     2.0272	C.2	1	noname
4	C3    -6.1999     0.2269     3.2315	C.2	1	noname
5	C4    -5.3868     0.6339     4.2980	C.2	1	noname
6	C5    -4.0296     0.6779     4.0911	C.2	1	noname
7	C6    -3.4937     0.3301     2.8671	C.2	1	noname
8	C7    -4.2848    -0.0687     1.8206	C.2	1	noname
9	N1    -3.7562    -0.4216     0.5780	N.3	1	noname
10	C8    -2.3773    -0.4213     0.2520	C.2	1	noname
11	O2    -1.5346    -0.0849     1.1152	O.2	1	noname
12	C9    -2.0015    -0.8191    -1.0920	C.2	1	noname
13	C10    -0.7270    -0.8586    -1.5204	C.2	1	noname
14	C11    -0.2800    -1.2584    -2.8913	C.3	1	noname
15	S1     0.8904    -2.5609    -2.3631	S.3	1	noname
16	C12     1.3767    -1.7176    -0.7025	C.3	1	noname
17	N2     2.5974    -1.0000    -1.2993	N.3	1	noname
18	C13     3.3745    -0.1693    -0.4876	C.2	1	noname
19	O3     3.1265     0.0232     0.7072	O.2	1	noname
20	C14     4.5398     0.4992    -1.1024	C.2	1	noname
21	C15     4.8316     0.3146    -2.3744	C.2	1	noname
22	C16     5.9833     0.9562    -3.0432	C.3	1	noname
23	C17     6.7808     1.8191    -2.1418	C.2	1	noname
24	O4     7.7823     2.3963    -2.6300	O.2	1	noname
25	N3     6.3780     1.9466    -0.7953	N.2	1	noname
26	C18     5.3612     1.3652    -0.2674	C.2	1	noname
27	N4     0.4188    -0.5377    -0.8315	N.3	1	noname
28	H1    -7.8595    -0.7582     1.6455	H	1	noname
29	H2    -7.5763     0.1970     0.1705	H	1	noname
30	H3    -7.2613    -1.5548     0.1705	H	1	noname
31	H4    -7.2831     0.1738     3.3404	H	1	noname
32	H5    -5.8011     0.9103     5.2676	H	1	noname
33	H6    -3.3736     0.9908     4.9034	H	1	noname
34	H7    -2.4141     0.3716     2.7227	H	1	noname
35	H8    -4.4172    -0.6962    -0.1346	H	1	noname
36	H9    -2.7369    -1.1123    -1.8412	H	1	noname
37	H10    -1.1508    -1.6764    -3.3964	H	1	noname
38	H11     0.2362    -0.3979    -3.3171	H	1	noname
39	H12     1.4697    -2.1564     0.2909	H	1	noname
40	H13     2.8999    -1.0771    -2.2598	H	1	noname
41	H14     4.1302    -0.3593    -2.8664	H	1	noname
42	H15     6.6449     0.1437    -3.3434	H	1	noname
43	H16     5.5593     1.6203    -3.7964	H	1	noname
44	H17     5.2097     1.5858     0.7892	H	1	noname
45	H18     0.5365     0.4021    -0.4809	H	1	noname
@<TRIPOS>BOND
1	1	2	1
2	2	3	1
3	3	4	2
4	4	5	1
5	5	6	2
6	6	7	1
7	7	8	2
8	8	9	1
9	9	10	1
10	10	11	2
11	10	12	1
12	12	13	2
13	13	14	1
14	14	15	1
15	15	16	1
16	16	17	1
17	17	18	1
18	18	19	2
19	18	20	1
20	20	21	2
21	21	22	1
22	22	23	1
23	23	24	2
24	23	25	1
25	25	26	2
26	16	27	1
27	8	3	1
28	27	13	1
29	26	20	1
30	1	28	1
31	1	29	1
32	1	30	1
33	4	31	1
34	5	32	1
35	6	33	1
36	7	34	1
37	9	35	1
38	12	36	1
39	14	37	1
40	14	38	1
41	16	39	1
42	17	40	1
43	21	41	1
44	22	42	1
45	22	43	1
46	26	44	1
47	27	45	1
@<TRIPOS>SUBSTRUCTURE
1	noname	1
