@<TRIPOS>MOLECULE
ZINC000007508964
51    54    1     0     0
SMALL
USER_CHARGES
@<TRIPOS>ATOM
1      C1     -0.0504    1.0787   -2.0042 C.3      1 ZINC000007508964    0.0200
2      O2     -0.2141   -0.2918   -2.3745 O.3      1 ZINC000007508964   -0.3000
3      C3     -1.4059   -0.8720   -2.0793 C.ar     1 ZINC000007508964    0.1400
4      C4     -2.3989   -0.1334   -1.4510 C.ar     1 ZINC000007508964   -0.1800
5      C5     -3.6102   -0.7176   -1.1493 C.ar     1 ZINC000007508964   -0.0800
6      C6     -3.8407   -2.0559   -1.4759 C.ar     1 ZINC000007508964   -0.1400
7      C7     -5.1371   -2.6831   -1.1536 C.2      1 ZINC000007508964    0.5700
8      O8     -5.3364   -3.8482   -1.4385 O.2      1 ZINC000007508964   -0.5100
9      N9     -6.1002   -1.9643   -0.5434 N.am     1 ZINC000007508964   -0.6700
10     C10    -7.3625   -2.5268   -0.3287 C.ar     1 ZINC000007508964    0.1600
11     C11    -7.4793   -3.8765   -0.0213 C.ar     1 ZINC000007508964   -0.1000
12     C12    -8.7262   -4.4328    0.1909 C.ar     1 ZINC000007508964   -0.0900
13     C13    -9.8602   -3.6495    0.0977 C.ar     1 ZINC000007508964   -0.1200
14     C14    -9.7502   -2.2990   -0.2094 C.ar     1 ZINC000007508964    0.1200
15     N15   -10.9007   -1.5055   -0.3033 N.am     1 ZINC000007508964   -0.5000
16     C16   -11.7711   -1.6977   -1.3292 C.2      1 ZINC000007508964    0.4300
17     C17   -11.4586   -2.7722   -2.3386 C.3      1 ZINC000007508964   -0.1200
18     N18   -12.8583   -1.0044   -1.4853 N.2      1 ZINC000007508964   -0.5100
19     C19   -13.2074   -0.0213   -0.6193 C.ar     1 ZINC000007508964    0.3600
20     N20   -14.3214    0.6853   -0.7830 N.ar     1 ZINC000007508964   -0.4700
21     C21   -14.6596    1.6393    0.0585 C.ar     1 ZINC000007508964    0.1700
22     C22   -13.8736    1.9560    1.1565 C.ar     1 ZINC000007508964   -0.2000
23     C23   -12.7012    1.2560    1.3814 C.ar     1 ZINC000007508964    0.0100
24     C24   -12.3596    0.2488    0.4789 C.ar     1 ZINC000007508964   -0.2500
25     C25   -11.1406   -0.5561    0.6317 C.2      1 ZINC000007508964    0.5600
26     O26   -10.3744   -0.3742    1.5598 O.2      1 ZINC000007508964   -0.4900
27     C27    -8.4996   -1.7359   -0.4169 C.ar     1 ZINC000007508964   -0.1200
28     C28    -2.8410   -2.7998   -2.1092 C.ar     1 ZINC000007508964   -0.1100
29     C29    -1.6314   -2.2069   -2.4134 C.ar     1 ZINC000007508964    0.0900
30     O30    -0.6566   -2.9278   -3.0295 O.3      1 ZINC000007508964   -0.3000
31     C31    -0.9523   -4.2926   -3.3326 C.3      1 ZINC000007508964    0.0200
32     H32     0.9435    1.4178   -2.2964 H        1 ZINC000007508964    0.1100
33     H33    -0.8036    1.6838   -2.5087 H        1 ZINC000007508964    0.0600
34     H34    -0.1661    1.1798   -0.9251 H        1 ZINC000007508964    0.0600
35     H35    -2.2218    0.9015   -1.1975 H        1 ZINC000007508964    0.1500
36     H36    -4.3810   -0.1407   -0.6600 H        1 ZINC000007508964    0.1300
37     H37    -5.9179   -1.0569   -0.2531 H        1 ZINC000007508964    0.4100
38     H38    -6.5946   -4.4916    0.0516 H        1 ZINC000007508964    0.1500
39     H39    -8.8144   -5.4824    0.4298 H        1 ZINC000007508964    0.1400
40     H40   -10.8334   -4.0875    0.2634 H        1 ZINC000007508964    0.1300
41     H41   -11.8227   -3.7320   -1.9721 H        1 ZINC000007508964    0.1000
42     H42   -11.9466   -2.5355   -3.2841 H        1 ZINC000007508964    0.1100
43     H43   -10.3805   -2.8262   -2.4897 H        1 ZINC000007508964    0.0900
44     H44   -15.5730    2.1901   -0.1107 H        1 ZINC000007508964    0.1700
45     H45   -14.1744    2.7438    1.8313 H        1 ZINC000007508964    0.1500
46     H46   -12.0711    1.4821    2.2289 H        1 ZINC000007508964    0.1500
47     H47    -8.4116   -0.6864   -0.6558 H        1 ZINC000007508964    0.1300
48     H48    -3.0154   -3.8349   -2.3633 H        1 ZINC000007508964    0.1500
49     H49    -0.0924   -4.7508   -3.8211 H        1 ZINC000007508964    0.1100
50     H50    -1.1751   -4.8295   -2.4105 H        1 ZINC000007508964    0.0600
51     H51    -1.8149   -4.3385   -3.9973 H        1 ZINC000007508964    0.0600
@<TRIPOS>BOND
1     1     2     1
2     1     32    1
3     1     33    1
4     1     34    1
5     2     3     1
6     3     29    ar
7     3     4     ar
8     4     5     ar
9     4     35    1
10    5     6     ar
11    5     36    1
12    6     7     1
13    6     28    ar
14    7     8     2
15    7     9     am
16    9     10    1
17    9     37    1
18    10    27    ar
19    10    11    ar
20    11    12    ar
21    11    38    1
22    12    13    ar
23    12    39    1
24    13    14    ar
25    13    40    1
26    14    15    1
27    14    27    ar
28    15    25    am
29    15    16    1
30    16    17    1
31    16    18    2
32    17    41    1
33    17    42    1
34    17    43    1
35    18    19    1
36    19    24    ar
37    19    20    ar
38    20    21    ar
39    21    22    ar
40    21    44    1
41    22    23    ar
42    22    45    1
43    23    24    ar
44    23    46    1
45    24    25    1
46    25    26    2
47    27    47    1
48    28    29    ar
49    28    48    1
50    29    30    1
51    30    31    1
52    31    49    1
53    31    50    1
54    31    51    1
@<TRIPOS>SUBSTRUCTURE
1   ZINC000007508964 1     RESIDUE    1   A     ZIN   1
