@<TRIPOS>MOLECULE
ZINC000011573260
45    46    1     0     0
SMALL
USER_CHARGES
@<TRIPOS>ATOM
1      C1      3.3005    1.6722    2.8177 C.3      1 ZINC000011573260    0.0300
2      O2      3.4313    0.2514    2.8958 O.3      1 ZINC000011573260   -0.3100
3      C3      2.3629   -0.4892    2.5000 C.ar     1 ZINC000011573260    0.1900
4      C4      2.4203   -1.8734    2.5554 C.ar     1 ZINC000011573260   -0.1900
5      C5      1.3287   -2.6298    2.1514 C.ar     1 ZINC000011573260    0.2200
6      N6      1.3858   -4.0266    2.2075 N.am     1 ZINC000011573260   -0.6700
7      C7      2.0903   -4.6337    3.1830 C.2      1 ZINC000011573260    0.5200
8      O8      2.5951   -3.9740    4.0667 O.2      1 ZINC000011573260   -0.4800
9      C9      2.2509   -6.1321    3.1756 C.3      1 ZINC000011573260    0.0700
10     H10     1.2683   -6.6026    3.1381 H        1 ZINC000011573260    0.1200
11     C11     3.0644   -6.5518    1.9497 C.3      1 ZINC000011573260   -0.1700
12     O12     2.9422   -6.5507    4.3819 O.3      1 ZINC000011573260   -0.3000
13     C13     2.6494   -7.7746    4.8608 C.2      1 ZINC000011573260    0.5200
14     O14     1.8390   -8.4730    4.2871 O.2      1 ZINC000011573260   -0.4600
15     C15     3.3168   -8.2693    6.0893 C.ar     1 ZINC000011573260    0.1800
16     N16     4.2028   -7.5100    6.7296 N.ar     1 ZINC000011573260   -0.4400
17     C17     4.7999   -7.9485    7.8257 C.ar     1 ZINC000011573260    0.2900
18     S18     5.9663   -6.9093    8.6409 S.3      1 ZINC000011573260    0.0400
19     C19     6.4380   -7.9858   10.0174 C.3      1 ZINC000011573260   -0.1500
20     N20     4.5438   -9.1492    8.3276 N.ar     1 ZINC000011573260   -0.4900
21     C21     3.6763   -9.9581    7.7465 C.ar     1 ZINC000011573260    0.1900
22     C22     3.0211   -9.5369    6.5955 C.ar     1 ZINC000011573260   -0.1100
23     Cl23    1.8732  -10.5669    5.7987 Cl       1 ZINC000011573260    0.0100
24     C24     0.1802   -1.9996    1.6922 C.ar     1 ZINC000011573260   -0.2100
25     C25     0.1242   -0.6153    1.6373 C.ar     1 ZINC000011573260    0.1900
26     O26    -1.0002    0.0017    1.1882 O.3      1 ZINC000011573260   -0.3100
27     C27    -0.9884    1.4304    1.1585 C.3      1 ZINC000011573260    0.0300
28     C28     1.2133    0.1398    2.0461 C.ar     1 ZINC000011573260   -0.3100
29     H29     2.4709    1.9958    3.4462 H        1 ZINC000011573260    0.0600
30     H30     4.2220    2.1414    3.1625 H        1 ZINC000011573260    0.1000
31     H31     3.1090    1.9632    1.7849 H        1 ZINC000011573260    0.0600
32     H32     3.3143   -2.3631    2.9124 H        1 ZINC000011573260    0.1500
33     H33     0.9183   -4.5581    1.5442 H        1 ZINC000011573260    0.4200
34     H34     3.1806   -7.6356    1.9444 H        1 ZINC000011573260    0.0800
35     H35     2.5454   -6.2375    1.0442 H        1 ZINC000011573260    0.0900
36     H36     4.0469   -6.0813    1.9872 H        1 ZINC000011573260    0.0800
37     H37     6.8649   -8.9094    9.6266 H        1 ZINC000011573260    0.0900
38     H38     7.1762   -7.4787   10.6387 H        1 ZINC000011573260    0.1100
39     H39     5.5570   -8.2175   10.6159 H        1 ZINC000011573260    0.0900
40     H40     3.4751  -10.9338    8.1636 H        1 ZINC000011573260    0.2000
41     H41    -0.6693   -2.5875    1.3774 H        1 ZINC000011573260    0.1400
42     H42    -0.8267    1.8134    2.1661 H        1 ZINC000011573260    0.0600
43     H43    -0.1855    1.7736    0.5061 H        1 ZINC000011573260    0.0600
44     H44    -1.9440    1.7939    0.7807 H        1 ZINC000011573260    0.1000
45     H45     1.1689    1.2181    2.0035 H        1 ZINC000011573260    0.1400
@<TRIPOS>BOND
1     1     2     1
2     1     29    1
3     1     30    1
4     1     31    1
5     2     3     1
6     3     28    ar
7     3     4     ar
8     4     5     ar
9     4     32    1
10    5     6     1
11    5     24    ar
12    6     7     am
13    6     33    1
14    7     8     2
15    7     9     1
16    9     10    1
17    9     11    1
18    9     12    1
19    11    34    1
20    11    35    1
21    11    36    1
22    12    13    1
23    13    14    2
24    13    15    1
25    15    22    ar
26    15    16    ar
27    16    17    ar
28    17    18    1
29    17    20    ar
30    18    19    1
31    19    37    1
32    19    38    1
33    19    39    1
34    20    21    ar
35    21    22    ar
36    21    40    1
37    22    23    1
38    24    25    ar
39    24    41    1
40    25    26    1
41    25    28    ar
42    26    27    1
43    27    42    1
44    27    43    1
45    27    44    1
46    28    45    1
@<TRIPOS>SUBSTRUCTURE
1   ZINC000011573260 1     RESIDUE    1   A     ZIN   1
