@<TRIPOS>MOLECULE
ZINC000008453112
91    95    1     0     0
SMALL
USER_CHARGES
@<TRIPOS>ATOM
1      C1     -1.3620    0.1893   -0.3227 C.2      1 ZINC000008453112   -0.1900
2      C2     -1.3694   -1.1155   -0.2065 C.2      1 ZINC000008453112   -0.1500
3      C3     -0.0799   -1.8885   -0.3099 C.3      1 ZINC000008453112   -0.0500
4      C4      0.0950   -2.7406    0.9207 C.ar     1 ZINC000008453112   -0.0800
5      C5      0.7514   -2.2307    2.0249 C.ar     1 ZINC000008453112   -0.1100
6      C6      0.9149   -3.0088    3.1563 C.ar     1 ZINC000008453112   -0.1700
7      C7      0.4197   -4.3022    3.1849 C.ar     1 ZINC000008453112    0.1000
8      O8      0.5792   -5.0686    4.2969 O.3      1 ZINC000008453112   -0.2900
9      C9      1.2677   -4.4759    5.4000 C.3      1 ZINC000008453112    0.0600
10     C10     1.3491   -5.4815    6.5502 C.3      1 ZINC000008453112    0.0700
11     O11     2.1551   -6.5932    6.1547 O.3      1 ZINC000008453112   -0.3000
12     C12     2.3302   -7.5853    7.0688 C.ar     1 ZINC000008453112    0.0600
13     C13     3.3945   -7.5269    7.9577 C.ar     1 ZINC000008453112   -0.0200
14     Cl14    4.4984   -6.1883    7.9000 Cl       1 ZINC000008453112   -0.0600
15     C15     3.5771   -8.5302    8.8877 C.ar     1 ZINC000008453112   -0.1100
16     C16     2.6876   -9.6089    8.9351 C.ar     1 ZINC000008453112    0.0300
17     C17     2.8786  -10.6792    9.9247 C.2      1 ZINC000008453112    0.0700
18     N18     3.8820  -10.6238   10.7631 N.2      1 ZINC000008453112   -0.2700
19     N19     4.0496  -11.5629   11.6314 N.2      1 ZINC000008453112   -0.4500
20     C20     5.0747  -11.5063   12.4881 C.2      1 ZINC000008453112    0.4500
21     C21     5.2648  -12.5354   13.4362 C.2      1 ZINC000008453112   -0.2900
22     C22     6.3196  -12.4503   14.2973 C.2      1 ZINC000008453112    0.4500
23     N23     6.5366  -13.4352   15.2349 N.pl3    1 ZINC000008453112   -0.6200
24     C24     6.1861  -14.8328   14.9472 C.3      1 ZINC000008453112    0.1300
25     C25     7.4163  -15.7110   15.1965 C.3      1 ZINC000008453112   -0.1400
26     C26     7.9295  -15.4715   16.6183 C.3      1 ZINC000008453112   -0.1200
27     C27     8.3427  -14.0061   16.7732 C.3      1 ZINC000008453112   -0.1400
28     C28     7.1286  -13.1095   16.5395 C.3      1 ZINC000008453112    0.1200
29     N29     7.1619  -11.3694   14.2158 N.pl3    1 ZINC000008453112   -0.6600
30     C30     6.9434  -10.3969   13.2856 C.2      1 ZINC000008453112    0.6500
31     N31     7.7958   -9.3255   13.2197 N.pl3    1 ZINC000008453112   -0.5900
32     C32     9.0040   -9.2778   14.0543 C.3      1 ZINC000008453112    0.1100
33     C33    10.2171   -9.0297   13.1522 C.3      1 ZINC000008453112   -0.1400
34     C34     9.9786   -7.7685   12.3188 C.3      1 ZINC000008453112   -0.1200
35     C35     8.7484   -7.9671   11.4303 C.3      1 ZINC000008453112   -0.1400
36     C36     7.5219   -8.2059   12.3085 C.3      1 ZINC000008453112    0.1300
37     N37     5.9341  -10.4705   12.4472 N.2      1 ZINC000008453112   -0.5900
38     C38     1.6151   -9.6657    8.0378 C.ar     1 ZINC000008453112   -0.1900
39     C39     1.4374   -8.6537    7.1135 C.ar     1 ZINC000008453112    0.1300
40     O40     0.3962   -8.7061    6.2403 O.3      1 ZINC000008453112   -0.3000
41     C41    -0.4738   -9.8357    6.3351 C.3      1 ZINC000008453112    0.0500
42     C42    -1.5764   -9.7202    5.2806 C.3      1 ZINC000008453112   -0.1500
43     C43    -0.2419   -4.8156    2.0730 C.ar     1 ZINC000008453112    0.1000
44     O44    -0.7302   -6.0846    2.0963 O.3      1 ZINC000008453112   -0.3000
45     C45    -1.3977   -6.5446    0.9195 C.3      1 ZINC000008453112    0.0300
46     C46    -0.4067   -4.0290    0.9447 C.ar     1 ZINC000008453112   -0.1700
47     H47    -0.4318    0.7111   -0.4926 H        1 ZINC000008453112    0.1000
48     H48    -2.2867    0.7429   -0.2531 H        1 ZINC000008453112    0.1000
49     H49    -2.2996   -1.6372   -0.0367 H        1 ZINC000008453112    0.1100
50     H50    -0.1088   -2.5270   -1.1928 H        1 ZINC000008453112    0.0800
51     H51     0.7552   -1.1928   -0.3918 H        1 ZINC000008453112    0.0800
52     H52     1.1380   -1.2225    2.0039 H        1 ZINC000008453112    0.1300
53     H53     1.4289   -2.6082    4.0176 H        1 ZINC000008453112    0.1300
54     H54     2.2745   -4.1947    5.0912 H        1 ZINC000008453112    0.0700
55     H55     0.7279   -3.5885    5.7308 H        1 ZINC000008453112    0.0800
56     H56     1.7945   -5.0015    7.4216 H        1 ZINC000008453112    0.0700
57     H57     0.3469   -5.8299    6.7999 H        1 ZINC000008453112    0.0700
58     H58     4.4062   -8.4827    9.5782 H        1 ZINC000008453112    0.1500
59     H59     2.1909  -11.5112    9.9598 H        1 ZINC000008453112    0.1000
60     H60     4.5868  -13.3749   13.4791 H        1 ZINC000008453112    0.1500
61     H61     5.3735  -15.1479   15.6019 H        1 ZINC000008453112    0.0800
62     H62     5.8762  -14.9250   13.9063 H        1 ZINC000008453112    0.0900
63     H63     7.1442  -16.7600   15.0799 H        1 ZINC000008453112    0.0800
64     H64     8.1970  -15.4553   14.4801 H        1 ZINC000008453112    0.0700
65     H65     7.1401  -15.7037   17.3332 H        1 ZINC000008453112    0.0700
66     H66     8.7901  -16.1133   16.8067 H        1 ZINC000008453112    0.0700
67     H67     8.7298  -13.8416   17.7788 H        1 ZINC000008453112    0.0800
68     H68     9.1146  -13.7665   16.0420 H        1 ZINC000008453112    0.0700
69     H69     7.4384  -12.0645   16.5510 H        1 ZINC000008453112    0.0700
70     H70     6.3904  -13.2826   17.3226 H        1 ZINC000008453112    0.0800
71     H71     7.9152  -11.2971   14.8225 H        1 ZINC000008453112    0.4100
72     H72     8.9159   -8.4682   14.7788 H        1 ZINC000008453112    0.0800
73     H73     9.1251  -10.2268   14.5766 H        1 ZINC000008453112    0.0700
74     H74    11.1068   -8.8963   13.7675 H        1 ZINC000008453112    0.0800
75     H75    10.3575   -9.8830   12.4887 H        1 ZINC000008453112    0.0700
76     H76     9.8136   -6.9201   12.9831 H        1 ZINC000008453112    0.0700
77     H77    10.8506   -7.5759   11.6939 H        1 ZINC000008453112    0.0700
78     H78     8.5929   -7.0774   10.8201 H        1 ZINC000008453112    0.0800
79     H79     8.9027   -8.8304   10.7830 H        1 ZINC000008453112    0.0700
80     H80     6.6639   -8.4457   11.6805 H        1 ZINC000008453112    0.1100
81     H81     7.3108   -7.3103   12.8927 H        1 ZINC000008453112    0.0700
82     H82     0.9256  -10.4964    8.0703 H        1 ZINC000008453112    0.1400
83     H83     0.0967  -10.7489    6.1658 H        1 ZINC000008453112    0.0600
84     H84    -0.9225   -9.8665    7.3280 H        1 ZINC000008453112    0.0600
85     H85    -2.2400  -10.5819    5.3529 H        1 ZINC000008453112    0.0800
86     H86    -2.1469   -8.8070    5.4500 H        1 ZINC000008453112    0.0700
87     H87    -1.1277   -9.6895    4.2877 H        1 ZINC000008453112    0.0700
88     H88    -1.7370   -7.5693    1.0714 H        1 ZINC000008453112    0.1000
89     H89    -2.2557   -5.9044    0.7147 H        1 ZINC000008453112    0.0500
90     H90    -0.7095   -6.5111    0.0749 H        1 ZINC000008453112    0.0500
91     H91    -0.9196   -4.4250    0.0806 H        1 ZINC000008453112    0.1300
@<TRIPOS>BOND
1     1     2     2
2     1     47    1
3     1     48    1
4     2     3     1
5     2     49    1
6     3     4     1
7     3     50    1
8     3     51    1
9     4     46    ar
10    4     5     ar
11    5     6     ar
12    5     52    1
13    6     7     ar
14    6     53    1
15    7     8     1
16    7     43    ar
17    8     9     1
18    9     10    1
19    9     54    1
20    9     55    1
21    10    11    1
22    10    56    1
23    10    57    1
24    11    12    1
25    12    39    ar
26    12    13    ar
27    13    14    1
28    13    15    ar
29    15    16    ar
30    15    58    1
31    16    17    1
32    16    38    ar
33    17    18    2
34    17    59    1
35    18    19    1
36    19    20    2
37    20    37    1
38    20    21    1
39    21    22    2
40    21    60    1
41    22    23    1
42    22    29    1
43    23    28    1
44    23    24    1
45    24    25    1
46    24    61    1
47    24    62    1
48    25    26    1
49    25    63    1
50    25    64    1
51    26    27    1
52    26    65    1
53    26    66    1
54    27    28    1
55    27    67    1
56    27    68    1
57    28    69    1
58    28    70    1
59    29    30    1
60    29    71    1
61    30    31    1
62    30    37    2
63    31    36    1
64    31    32    1
65    32    33    1
66    32    72    1
67    32    73    1
68    33    34    1
69    33    74    1
70    33    75    1
71    34    35    1
72    34    76    1
73    34    77    1
74    35    36    1
75    35    78    1
76    35    79    1
77    36    80    1
78    36    81    1
79    38    39    ar
80    38    82    1
81    39    40    1
82    40    41    1
83    41    42    1
84    41    83    1
85    41    84    1
86    42    85    1
87    42    86    1
88    42    87    1
89    43    44    1
90    43    46    ar
91    44    45    1
92    45    88    1
93    45    89    1
94    45    90    1
95    46    91    1
@<TRIPOS>SUBSTRUCTURE
1   ZINC000008453112 1     RESIDUE    1   A     ZIN   1
