@<TRIPOS>MOLECULE

55 59 1
SMALL
NO_CHARGES
@<TRIPOS>ATOM
1	C1     8.5573     1.4542     1.4329	C.3	1	noname
2	C2     7.3543     0.8873     0.8099	C.2	1	noname
3	C3     7.4791    -0.0170    -0.2494	C.2	1	noname
4	C4     6.3644    -0.5627    -0.8505	C.2	1	noname
5	C5     6.5272    -1.5207    -1.9738	C.3	1	noname
6	N1     5.1448    -0.2116    -0.4016	N.3	1	noname
7	N2     3.9205    -0.5557    -0.7639	N.2	1	noname
8	C6     3.0082     0.0709    -0.0032	C.2	1	noname
9	C7     1.5481    -0.0713    -0.1224	C.2	1	noname
10	O1     0.7652     0.5564     0.6355	O.2	1	noname
11	N3     0.9634    -0.9236    -1.0984	N.3	1	noname
12	C8    -0.4709    -1.0405    -1.1888	C.2	1	noname
13	C9    -1.3056    -0.3424    -0.3471	C.2	1	noname
14	C10    -2.6779    -0.4553    -0.4347	C.2	1	noname
15	C11    -3.5626     0.2949     0.4695	C.2	1	noname
16	N4    -3.1631     1.1341     1.4362	N.2	1	noname
17	N5    -4.2263     1.6397     2.0606	N.2	1	noname
18	C12    -5.3273     1.1130     1.4812	C.2	1	noname
19	N6    -4.8833     0.2805     0.4950	N.3	1	noname
20	C13    -5.6620    -0.5283    -0.4240	C.3	1	noname
21	C14    -6.5933    -1.4640     0.3502	C.3	1	noname
22	C15    -7.7873    -0.6488     0.8465	C.3	1	noname
23	C16    -7.4318     0.0692     2.1454	C.3	1	noname
24	C17    -6.7395     1.3926     1.8529	C.3	1	noname
25	C18    -3.1890    -1.2967    -1.4004	C.2	1	noname
26	C19    -2.3659    -2.0000    -2.2479	C.2	1	noname
27	C20    -0.9981    -1.8777    -2.1491	C.2	1	noname
28	C21    -0.0560    -2.6190    -3.0447	C.3	1	noname
29	N7     3.6908     0.8316     0.8626	N.2	1	noname
30	C22     5.0030     0.6593     0.6194	C.2	1	noname
31	N8     6.1137     1.1892     1.2021	N.2	1	noname
32	H1     8.4606     1.4086     2.5176	H	1	noname
33	H2     9.4315     0.8823     1.1217	H	1	noname
34	H3     8.6727     2.4924     1.1217	H	1	noname
35	H4     8.4658    -0.3025    -0.6141	H	1	noname
36	H5     6.4720    -2.5404    -1.5926	H	1	noname
37	H6     5.7338    -1.3624    -2.7042	H	1	noname
38	H7     7.4953    -1.3624    -2.4489	H	1	noname
39	H8     1.5632    -1.4428    -1.7236	H	1	noname
40	H9    -0.8701     0.3146     0.4057	H	1	noname
41	H10    -6.2868     0.1735    -0.9764	H	1	noname
42	H11    -4.9396    -1.1489    -0.9541	H	1	noname
43	H12    -6.9789    -2.1929    -0.3627	H	1	noname
44	H13    -6.0479    -1.8000     1.2321	H	1	noname
45	H14    -7.9676     0.1263     0.1016	H	1	noname
46	H15    -8.5734    -1.3633     1.0908	H	1	noname
47	H16    -8.3750     0.3146     2.6336	H	1	noname
48	H17    -6.7001    -0.5564     2.6567	H	1	noname
49	H18    -7.2148     1.8208     0.9704	H	1	noname
50	H19    -6.7102     1.9578     2.7845	H	1	noname
51	H20    -4.2690    -1.4085    -1.4961	H	1	noname
52	H21    -2.7996    -2.6574    -3.0014	H	1	noname
53	H22     0.6561    -3.1793    -2.4389	H	1	noname
54	H23    -0.6193    -3.3082    -3.6738	H	1	noname
55	H24     0.4814    -1.9094    -3.6738	H	1	noname
@<TRIPOS>BOND
1	1	2	1
2	2	3	1
3	3	4	2
4	4	5	1
5	4	6	1
6	6	7	1
7	7	8	2
8	8	9	1
9	9	10	2
10	9	11	1
11	11	12	1
12	12	13	2
13	13	14	1
14	14	15	1
15	15	16	2
16	16	17	1
17	17	18	2
18	18	19	1
19	19	20	1
20	20	21	1
21	21	22	1
22	22	23	1
23	23	24	1
24	14	25	2
25	25	26	1
26	26	27	2
27	27	28	1
28	8	29	1
29	29	30	2
30	30	31	1
31	31	2	2
32	30	6	1
33	27	12	1
34	19	15	1
35	24	18	1
36	1	32	1
37	1	33	1
38	1	34	1
39	3	35	1
40	5	36	1
41	5	37	1
42	5	38	1
43	11	39	1
44	13	40	1
45	20	41	1
46	20	42	1
47	21	43	1
48	21	44	1
49	22	45	1
50	22	46	1
51	23	47	1
52	23	48	1
53	24	49	1
54	24	50	1
55	25	51	1
56	26	52	1
57	28	53	1
58	28	54	1
59	28	55	1
@<TRIPOS>SUBSTRUCTURE
1	noname	1
