@<TRIPOS>MOLECULE

64 67 1
SMALL
NO_CHARGES
@<TRIPOS>ATOM
1	C1     4.3803     3.0777    -2.8686	C.3	1	noname
2	O1     4.7933     2.6268    -1.6732	O.3	1	noname
3	C2     4.1832     1.5707    -1.0471	C.2	1	noname
4	C3     3.1036     0.9277    -1.6417	C.2	1	noname
5	C4     2.4849    -0.1332    -1.0208	C.2	1	noname
6	C5     2.9250    -0.5758     0.2004	C.2	1	noname
7	C6     2.3097    -1.7116     0.9255	C.3	1	noname
8	N1     1.2111    -2.3048     0.2405	N.3	1	noname
9	C7     0.6528    -3.3954     0.9523	C.3	1	noname
10	C8    -0.8920    -3.4328     0.4528	C.3	1	noname
11	C9    -0.5061    -3.3834    -1.1208	C.3	1	noname
12	C10    -1.6660    -3.0188    -1.9416	C.3	1	noname
13	C11    -1.8154    -1.5103    -1.6502	C.3	1	noname
14	C12    -2.2640    -1.4862    -0.2730	C.3	1	noname
15	O2    -3.1294    -2.5879    -0.0041	O.3	1	noname
16	C13    -2.9822    -0.2851     0.1930	C.2	1	noname
17	C14    -4.2210    -0.4339     0.7719	C.2	1	noname
18	N2    -4.8795     0.6397     1.2093	N.2	1	noname
19	C15    -4.4117     1.8964     1.1258	C.2	1	noname
20	O3    -5.1484     2.9874     1.6030	O.3	1	noname
21	C16    -4.6274     4.2769     1.4976	C.3	1	noname
22	N3    -3.2050     2.0413     0.5616	N.2	1	noname
23	C17    -2.4829     1.0021     0.0973	C.2	1	noname
24	O4    -1.2256     1.2211    -0.4850	O.3	1	noname
25	C18    -0.7174     2.5173    -0.5840	C.3	1	noname
26	C19    -1.0260    -1.7484     0.7598	C.3	1	noname
27	C20     0.2270    -1.3976    -0.2060	C.3	1	noname
28	C21     4.0039     0.0737     0.7851	C.2	1	noname
29	C22     4.4786    -0.4084     2.1090	C.3	1	noname
30	C23     4.6396     1.1369     0.1843	C.2	1	noname
31	C24     5.8070     1.8179     0.8472	C.3	1	noname
32	H1     4.1558     2.2317    -3.5183	H	1	noname
33	H2     3.4837     3.6837    -2.7384	H	1	noname
34	H3     5.1661     3.6837    -3.3196	H	1	noname
35	H4     2.7357     1.2613    -2.6120	H	1	noname
36	H5     1.6395    -0.6269    -1.5001	H	1	noname
37	H6     3.0668    -2.4940     0.9781	H	1	noname
38	H7     1.8847    -1.3021     1.8419	H	1	noname
39	H8     1.1795    -4.2823     0.5999	H	1	noname
40	H9     0.6968    -3.1179     2.0055	H	1	noname
41	H10    -1.6347    -4.1649     0.7699	H	1	noname
42	H11     0.2030    -2.5693    -1.2712	H	1	noname
43	H12    -0.2513    -4.3940    -1.4398	H	1	noname
44	H13    -1.3839    -3.1523    -2.9860	H	1	noname
45	H14    -2.5313    -3.5455    -1.5392	H	1	noname
46	H15    -0.8307    -1.0436    -1.6761	H	1	noname
47	H16    -2.6251    -1.1086    -2.2595	H	1	noname
48	H17    -3.2181    -2.7009     0.9451	H	1	noname
49	H18    -4.6859    -1.4132     0.8853	H	1	noname
50	H19    -4.4626     4.6848     2.4949	H	1	noname
51	H20    -3.6811     4.2434     0.9578	H	1	noname
52	H21    -5.3314     4.9102     0.9578	H	1	noname
53	H22    -0.5585     2.9226     0.4153	H	1	noname
54	H23     0.2302     2.4959    -1.1223	H	1	noname
55	H24    -1.4270     3.1456    -1.1223	H	1	noname
56	H25    -1.0898    -1.2898     1.7466	H	1	noname
57	H26    -0.0002    -1.6765    -1.2349	H	1	noname
58	H27     0.6077    -0.4009     0.0171	H	1	noname
59	H28     4.4821    -1.4983     2.1189	H	1	noname
60	H29     5.4886    -0.0401     2.2890	H	1	noname
61	H30     3.8131    -0.0401     2.8898	H	1	noname
62	H31     5.6979     1.7542     1.9299	H	1	noname
63	H32     6.7327     1.3275     0.5459	H	1	noname
64	H33     5.8358     2.8650     0.5459	H	1	noname
@<TRIPOS>BOND
1	1	2	1
2	2	3	1
3	3	4	2
4	4	5	1
5	5	6	2
6	6	7	1
7	7	8	1
8	8	9	1
9	10	9	1
10	10	11	1
11	11	12	1
12	12	13	1
13	13	14	1
14	14	15	1
15	14	16	1
16	16	17	2
17	17	18	1
18	18	19	2
19	19	20	1
20	20	21	1
21	19	22	1
22	22	23	2
23	23	24	1
24	24	25	1
25	14	26	1
26	26	27	1
27	6	28	1
28	28	29	1
29	28	30	2
30	30	31	1
31	30	3	1
32	27	8	1
33	26	10	1
34	23	16	1
35	1	32	1
36	1	33	1
37	1	34	1
38	4	35	1
39	5	36	1
40	7	37	1
41	7	38	1
42	9	39	1
43	9	40	1
44	10	41	1
45	11	42	1
46	11	43	1
47	12	44	1
48	12	45	1
49	13	46	1
50	13	47	1
51	15	48	1
52	17	49	1
53	21	50	1
54	21	51	1
55	21	52	1
56	25	53	1
57	25	54	1
58	25	55	1
59	26	56	1
60	27	57	1
61	27	58	1
62	29	59	1
63	29	60	1
64	29	61	1
65	31	62	1
66	31	63	1
67	31	64	1
@<TRIPOS>SUBSTRUCTURE
1	noname	1
