@<TRIPOS>MOLECULE

60 65 1
SMALL
NO_CHARGES
@<TRIPOS>ATOM
1	C1    -8.4028     0.2551     2.0364	C.3	1	noname
2	C2    -7.9883     1.0004     0.8388	C.3	1	noname
3	N1    -6.6303     0.6074     0.4303	N.3	1	noname
4	C3    -5.7073     1.4301     0.1631	C.2	1	noname
5	C4    -4.6770     0.7503    -0.6128	C.2	1	noname
6	C5    -3.5724     1.6362    -0.8411	C.2	1	noname
7	C6    -2.3324     1.3455    -0.4321	C.2	1	noname
8	O1    -1.9126     0.2489     0.2603	O.3	1	noname
9	C7    -0.5366     0.3193     0.4402	C.2	1	noname
10	C8     0.4056    -0.5780     1.0483	C.2	1	noname
11	C9     1.6456    -0.3156     1.0487	C.2	1	noname
12	O2     2.6845    -1.1898     1.5905	O.3	1	noname
13	C10     3.2793    -1.2173     0.1673	C.3	1	noname
14	C11     4.5800    -1.6117     0.0643	C.2	1	noname
15	C12     5.3916    -2.5668     0.4702	C.2	1	noname
16	C13     6.7667    -2.4420     0.2335	C.2	1	noname
17	Cl1     7.8364    -3.7813     0.4106	Cl	1	noname
18	C14     7.3289    -1.3078    -0.3186	C.2	1	noname
19	C15     6.4588    -0.2597    -0.6851	C.2	1	noname
20	C16     5.2132    -0.4159    -0.5504	C.2	1	noname
21	O3     4.3886     0.5520    -1.0540	O.3	1	noname
22	C17     4.9989     1.6926    -1.6846	C.3	1	noname
23	O4     6.0408     2.0370    -0.7648	O.3	1	noname
24	C18     7.0718     1.0934    -1.0349	C.3	1	noname
25	C19     2.1037     0.9097     0.4950	C.2	1	noname
26	C20     1.2764     1.7710    -0.0537	C.2	1	noname
27	C21     1.6459     3.1736    -0.4313	C.3	1	noname
28	C22    -0.0401     1.4690    -0.1152	C.2	1	noname
29	C23    -1.1797     2.2152    -0.7019	C.2	1	noname
30	O5    -1.1766     3.3086    -1.2608	O.2	1	noname
31	C24    -5.1301    -0.5037    -0.7699	C.2	1	noname
32	C25    -4.6421    -1.6742    -1.3903	C.2	1	noname
33	C26    -5.3421    -2.8004    -1.2384	C.2	1	noname
34	C27    -6.4745    -2.8553    -0.5892	C.2	1	noname
35	C28    -7.0593    -1.7323    -0.0265	C.2	1	noname
36	C29    -6.3125    -0.5634    -0.1205	C.2	1	noname
37	H1    -8.3348    -0.8149     1.8401	H	1	noname
38	H2    -7.7494     0.5138     2.8696	H	1	noname
39	H3    -9.4315     0.5138     2.2874	H	1	noname
40	H4    -8.6563     0.6917     0.0347	H	1	noname
41	H5    -7.9340     2.0495     1.1297	H	1	noname
42	H6    -5.7809     2.4602     0.5119	H	1	noname
43	H7    -3.6821     2.5898    -1.3576	H	1	noname
44	H8     0.1638    -1.5194     1.5416	H	1	noname
45	H9     2.7501    -1.9837    -0.3990	H	1	noname
46	H10     3.3093    -0.1915    -0.2000	H	1	noname
47	H11     4.9456    -3.4215     0.9788	H	1	noname
48	H12     8.4079    -1.2429    -0.4584	H	1	noname
49	H13     5.4622     1.3624    -2.6143	H	1	noname
50	H14     4.2735     2.5061    -1.6961	H	1	noname
51	H15     7.2560     1.1295    -2.1086	H	1	noname
52	H16     7.8809     1.3047    -0.3357	H	1	noname
53	H17     3.1525     1.2067     0.4909	H	1	noname
54	H18     1.8014     3.7640     0.4717	H	1	noname
55	H19     2.5631     3.1617    -1.0201	H	1	noname
56	H20     0.8419     3.6152    -1.0201	H	1	noname
57	H21    -3.7287    -1.7083    -1.9841	H	1	noname
58	H22    -4.9674    -3.7288    -1.6694	H	1	noname
59	H23    -6.9330    -3.8415    -0.5168	H	1	noname
60	H24    -8.0364    -1.7660     0.4554	H	1	noname
@<TRIPOS>BOND
1	1	2	1
2	2	3	1
3	3	4	1
4	4	5	2
5	5	6	1
6	6	7	2
7	7	8	1
8	8	9	1
9	9	10	2
10	10	11	1
11	11	12	1
12	12	13	1
13	13	14	1
14	14	15	2
15	15	16	1
16	16	17	1
17	16	18	2
18	18	19	1
19	19	20	2
20	20	21	1
21	21	22	1
22	22	23	1
23	23	24	1
24	11	25	2
25	25	26	1
26	26	27	1
27	26	28	2
28	28	29	1
29	29	30	2
30	5	31	1
31	31	32	2
32	32	33	1
33	33	34	2
34	34	35	1
35	35	36	2
36	36	3	1
37	29	7	1
38	36	31	1
39	28	9	1
40	20	14	1
41	24	19	1
42	1	37	1
43	1	38	1
44	1	39	1
45	2	40	1
46	2	41	1
47	4	42	1
48	6	43	1
49	10	44	1
50	13	45	1
51	13	46	1
52	15	47	1
53	18	48	1
54	22	49	1
55	22	50	1
56	24	51	1
57	24	52	1
58	25	53	1
59	27	54	1
60	27	55	1
61	27	56	1
62	32	57	1
63	33	58	1
64	34	59	1
65	35	60	1
@<TRIPOS>SUBSTRUCTURE
1	noname	1
