@<TRIPOS>MOLECULE
ZINC000074257768
46    46    1     0     0
SMALL
USER_CHARGES
@<TRIPOS>ATOM
1      C1     -0.0178    1.4608    0.0101 C.3      1 ZINC000074257768    0.1000
2      N2      0.0021   -0.0041    0.0020 N.am     1 ZINC000074257768   -0.7400
3      C3      0.6044   -0.6754    1.0035 C.2      1 ZINC000074257768    0.6900
4      O4      1.1310   -0.0655    1.9134 O.2      1 ZINC000074257768   -0.5300
5      N5      0.6227   -2.0230    0.9961 N.am     1 ZINC000074257768   -0.6900
6      C6      1.2250   -2.6943    1.9977 C.2      1 ZINC000074257768    0.5200
7      O7      1.7503   -2.0859    2.9052 O.2      1 ZINC000074257768   -0.4600
8      C8      1.2454   -4.2011    1.9894 C.3      1 ZINC000074257768   -0.1200
9      C9      1.9854   -4.7079    3.2289 C.3      1 ZINC000074257768   -0.0800
10     S10     2.0100   -6.5218    3.2189 S.3      1 ZINC000074257768   -0.2500
11     C11     2.9138   -6.9260    4.7389 C.3      1 ZINC000074257768   -0.0800
12     C12     3.0220   -8.4457    4.8791 C.3      1 ZINC000074257768   -0.1000
13     C13     3.7843   -8.7866    6.1611 C.3      1 ZINC000074257768    0.0700
14     O14     3.8854  -10.2060    6.2920 O.3      1 ZINC000074257768   -0.3100
15     C15     4.5387  -10.6798    7.3855 C.ar     1 ZINC000074257768    0.1400
16     C16     5.0664   -9.7968    8.3163 C.ar     1 ZINC000074257768   -0.2200
17     C17     5.7296  -10.2809    9.4273 C.ar     1 ZINC000074257768   -0.0400
18     C18     6.3031   -9.3223   10.4388 C.3      1 ZINC000074257768   -0.1200
19     C19     5.8672  -11.6442    9.6121 C.ar     1 ZINC000074257768   -0.1600
20     C20     5.3425  -12.5263    8.6856 C.ar     1 ZINC000074257768   -0.0400
21     C21     5.4948  -14.0116    8.8900 C.3      1 ZINC000074257768   -0.1200
22     C22     4.6739  -12.0473    7.5757 C.ar     1 ZINC000074257768   -0.1600
23     H23     1.0048    1.8381    0.0023 H        1 ZINC000074257768    0.0600
24     H24    -0.5450    1.8219   -0.8730 H        1 ZINC000074257768    0.0800
25     H25    -0.5280    1.8123    0.9069 H        1 ZINC000074257768    0.0600
26     H26    -0.4183   -0.4908   -0.7241 H        1 ZINC000074257768    0.4000
27     H27     0.2023   -2.5097    0.2700 H        1 ZINC000074257768    0.4100
28     H28     0.2228   -4.5784    1.9971 H        1 ZINC000074257768    0.1100
29     H29     1.7556   -4.5526    1.0926 H        1 ZINC000074257768    0.1100
30     H30     3.0080   -4.3307    3.2212 H        1 ZINC000074257768    0.0900
31     H31     1.4752   -4.3564    4.1257 H        1 ZINC000074257768    0.0900
32     H32     3.9131   -6.4932    4.6934 H        1 ZINC000074257768    0.0900
33     H33     2.3804   -6.5189    5.5979 H        1 ZINC000074257768    0.0900
34     H34     2.0227   -8.8785    4.9246 H        1 ZINC000074257768    0.0900
35     H35     3.5554   -8.8527    4.0201 H        1 ZINC000074257768    0.0900
36     H36     4.7837   -8.3538    6.1156 H        1 ZINC000074257768    0.0700
37     H37     3.2509   -8.3796    7.0201 H        1 ZINC000074257768    0.0700
38     H38     4.9592   -8.7318    8.1724 H        1 ZINC000074257768    0.1300
39     H39     5.5555   -9.1104   11.2032 H        1 ZINC000074257768    0.0700
40     H40     7.1822   -9.7681   10.9041 H        1 ZINC000074257768    0.0700
41     H41     6.5864   -8.3951    9.9408 H        1 ZINC000074257768    0.0700
42     H42     6.3857  -12.0207   10.4815 H        1 ZINC000074257768    0.1200
43     H43     4.6454  -14.3890    9.4594 H        1 ZINC000074257768    0.0700
44     H44     5.5328  -14.5096    7.9211 H        1 ZINC000074257768    0.0700
45     H45     6.4163  -14.2105    9.4372 H        1 ZINC000074257768    0.0700
46     H46     4.2642  -12.7367    6.8523 H        1 ZINC000074257768    0.1300
@<TRIPOS>BOND
1     1     2     1
2     1     23    1
3     1     24    1
4     1     25    1
5     2     3     am
6     2     26    1
7     3     4     2
8     3     5     am
9     5     6     am
10    5     27    1
11    6     7     2
12    6     8     1
13    8     9     1
14    8     28    1
15    8     29    1
16    9     10    1
17    9     30    1
18    9     31    1
19    10    11    1
20    11    12    1
21    11    32    1
22    11    33    1
23    12    13    1
24    12    34    1
25    12    35    1
26    13    14    1
27    13    36    1
28    13    37    1
29    14    15    1
30    15    22    ar
31    15    16    ar
32    16    17    ar
33    16    38    1
34    17    18    1
35    17    19    ar
36    18    39    1
37    18    40    1
38    18    41    1
39    19    20    ar
40    19    42    1
41    20    21    1
42    20    22    ar
43    21    43    1
44    21    44    1
45    21    45    1
46    22    46    1
@<TRIPOS>SUBSTRUCTURE
1   ZINC000074257768 1     RESIDUE    1   A     ZIN   1
