@<TRIPOS>MOLECULE

61 66 1
SMALL
NO_CHARGES
@<TRIPOS>ATOM
1	C1    -6.4361    -4.6695    -0.7658	C.3	1	noname
2	C2    -5.4305    -3.7593    -1.4193	C.3	1	noname
3	N1    -5.1359    -2.6063    -0.6011	N.3	1	noname
4	C3    -4.1250    -2.6023     0.3349	C.2	1	noname
5	C4    -4.0863    -1.3954     0.9133	C.2	1	noname
6	C5    -3.2544    -0.6956     1.9032	C.2	1	noname
7	C6    -2.0782    -0.3134     1.4826	C.2	1	noname
8	O1    -1.5101    -0.4915     0.2638	O.3	1	noname
9	C7    -0.2163     0.0739     0.2044	C.2	1	noname
10	C8     0.7417     0.1301    -0.7565	C.2	1	noname
11	C9     1.9926     0.6975    -0.6243	C.2	1	noname
12	O2     2.8880     0.7055    -1.5748	O.3	1	noname
13	C10     4.1043     1.0941    -1.9810	C.3	1	noname
14	C11     5.0531     0.9685    -0.8464	C.2	1	noname
15	C12     4.9592     1.7926     0.2661	C.2	1	noname
16	C13     5.9023     1.8316     1.2486	C.2	1	noname
17	Cl1     5.7715     2.9112     2.6368	Cl	1	noname
18	C14     7.0026     1.0281     1.1491	C.2	1	noname
19	C15     7.1380     0.1863     0.0518	C.2	1	noname
20	C16     6.1423     0.1840    -0.9226	C.2	1	noname
21	O3     6.3890    -0.7303    -1.9673	O.3	1	noname
22	C17     7.0115    -1.9580    -1.4656	C.3	1	noname
23	O4     8.3059    -1.5758    -1.0769	O.3	1	noname
24	C18     8.3178    -0.7057    -0.0282	C.3	1	noname
25	C19     2.2035     1.2468     0.6630	C.2	1	noname
26	C20     1.2821     1.2248     1.6328	C.2	1	noname
27	C21     0.0546     0.6384     1.4240	C.2	1	noname
28	C22    -1.0737     0.4291     2.2703	C.2	1	noname
29	O5    -1.1911     0.8046     3.4525	O.2	1	noname
30	C23    -5.1293    -0.6428     0.2844	C.2	1	noname
31	C24    -5.4714     0.6432     0.5270	C.2	1	noname
32	C25    -6.5634     1.2349    -0.2344	C.2	1	noname
33	O6    -6.7861     2.4874     0.1154	O.3	1	noname
34	C26    -7.0652     3.7034     0.3951	C.3	1	noname
35	C27    -7.1472     0.4263    -1.1512	C.2	1	noname
36	C28    -6.8077    -0.8733    -1.4000	C.2	1	noname
37	C29    -5.7520    -1.4230    -0.6467	C.2	1	noname
38	H1    -6.3481    -4.5898     0.3177	H	1	noname
39	H2    -7.4414    -4.3790    -1.0710	H	1	noname
40	H3    -6.2469    -5.6987    -1.0710	H	1	noname
41	H4    -4.4950    -4.3145    -1.4876	H	1	noname
42	H5    -5.8970    -3.3643    -2.3218	H	1	noname
43	H6    -3.4575    -3.4283     0.5804	H	1	noname
44	H7    -3.5069    -0.4627     2.9376	H	1	noname
45	H8     0.4846    -0.3186    -1.7160	H	1	noname
46	H9     4.3885     0.3787    -2.7527	H	1	noname
47	H10     3.9973     2.1500    -2.2295	H	1	noname
48	H11     4.0945     2.4473     0.3745	H	1	noname
49	H12     7.7600     1.0582     1.9324	H	1	noname
50	H13     6.4844    -2.2664    -0.5628	H	1	noname
51	H14     7.1197    -2.6534    -2.2980	H	1	noname
52	H15     8.2947    -1.3513     0.8498	H	1	noname
53	H16     9.1866    -0.0757    -0.2187	H	1	noname
54	H17     3.1475     1.7231     0.9277	H	1	noname
55	H18     1.5307     1.6832     2.5900	H	1	noname
56	H19    -4.9008     1.1715     1.2909	H	1	noname
57	H20    -7.0942     3.8298     1.4774	H	1	noname
58	H21    -6.3022     4.3576    -0.0268	H	1	noname
59	H22    -8.0371     3.9594    -0.0268	H	1	noname
60	H23    -7.9582     0.8576    -1.7380	H	1	noname
61	H24    -7.3491    -1.4401    -2.1575	H	1	noname
@<TRIPOS>BOND
1	1	2	1
2	2	3	1
3	3	4	1
4	4	5	2
5	5	6	1
6	6	7	2
7	7	8	1
8	8	9	1
9	9	10	2
10	10	11	1
11	11	12	1
12	12	13	1
13	13	14	1
14	14	15	2
15	15	16	1
16	16	17	1
17	16	18	2
18	18	19	1
19	19	20	2
20	20	21	1
21	21	22	1
22	22	23	1
23	23	24	1
24	11	25	2
25	25	26	1
26	26	27	2
27	27	28	1
28	28	29	2
29	5	30	1
30	30	31	2
31	31	32	1
32	32	33	1
33	33	34	1
34	32	35	2
35	35	36	1
36	36	37	2
37	37	3	1
38	28	7	1
39	37	30	1
40	27	9	1
41	20	14	1
42	24	19	1
43	1	38	1
44	1	39	1
45	1	40	1
46	2	41	1
47	2	42	1
48	4	43	1
49	6	44	1
50	10	45	1
51	13	46	1
52	13	47	1
53	15	48	1
54	18	49	1
55	22	50	1
56	22	51	1
57	24	52	1
58	24	53	1
59	25	54	1
60	26	55	1
61	31	56	1
62	34	57	1
63	34	58	1
64	34	59	1
65	35	60	1
66	36	61	1
@<TRIPOS>SUBSTRUCTURE
1	noname	1
