@<TRIPOS>MOLECULE

48 50 1
SMALL
NO_CHARGES
@<TRIPOS>ATOM
1	C1    -2.5712     0.0750    -2.7816	C.3	1	noname
2	O1    -3.1341     0.0158    -2.1336	O.3	1	noname
3	C2    -4.1972    -0.0758    -1.2501	C.2	1	noname
4	C3    -5.4918    -0.0986    -1.7800	C.2	1	noname
5	C4    -6.6082    -0.1925    -0.9469	C.2	1	noname
6	C5    -6.4505    -0.2640     0.4051	C.2	1	noname
7	C6    -7.6060    -0.3712     1.3536	C.3	1	noname
8	C7    -5.1596    -0.2396     0.9092	C.2	1	noname
9	C8    -4.0412    -0.1469     0.1045	C.2	1	noname
10	N1    -2.7159    -0.1118     0.6820	N.3	1	noname
11	C9    -2.5917    -0.1241     2.0861	C.2	1	noname
12	O2    -3.6755    -0.1730     2.7551	O.2	1	noname
13	C10    -1.3679    -0.0851     2.8032	C.2	1	noname
14	C11    -0.2097    -0.0391     2.1838	C.2	1	noname
15	C12     1.0451     0.0037     3.0285	C.3	1	noname
16	S1     1.6381     1.5821     2.2870	S.3	1	noname
17	C13     1.0490     1.1398     0.4847	C.3	1	noname
18	N2     2.3366     0.3017     0.2353	N.3	1	noname
19	C14     3.3274     0.8413    -0.5955	C.2	1	noname
20	O3     3.0829     1.9761    -1.0888	O.2	1	noname
21	C15     4.5888     0.1869    -0.9144	C.2	1	noname
22	C16     4.9167    -1.0055    -0.4319	C.2	1	noname
23	C17     6.1734    -1.7267    -0.7093	C.3	1	noname
24	C18     7.0797    -1.0308    -1.6479	C.2	1	noname
25	O4     8.1558    -1.5682    -1.9936	O.2	1	noname
26	N3     6.6748     0.2492    -2.1261	N.2	1	noname
27	C19     5.5704     0.7886    -1.8034	C.2	1	noname
28	N4     0.1819    -0.0331     0.8848	N.3	1	noname
29	H1    -2.2871    -0.9252    -3.1086	H	1	noname
30	H2    -3.0286     0.6126    -3.6122	H	1	noname
31	H3    -1.6848     0.6126    -2.4449	H	1	noname
32	H4    -5.6329    -0.0423    -2.8594	H	1	noname
33	H5    -7.6176    -0.2102    -1.3580	H	1	noname
34	H6    -7.2385    -0.3371     2.3792	H	1	noname
35	H7    -8.2921     0.4589     1.1857	H	1	noname
36	H8    -8.1277    -1.3134     1.1857	H	1	noname
37	H9    -5.0174    -0.2959     1.9884	H	1	noname
38	H10    -1.8843    -0.0790     0.1097	H	1	noname
39	H11    -1.3145    -0.0908     3.8919	H	1	noname
40	H12     0.7383     0.1264     4.0672	H	1	noname
41	H13     1.6649    -0.8452     2.7400	H	1	noname
42	H14     0.6415     1.7729    -0.3035	H	1	noname
43	H15     2.5332    -0.6110     0.6205	H	1	noname
44	H16     4.1314    -1.4039     0.2106	H	1	noname
45	H17     6.7056    -1.7680     0.2411	H	1	noname
46	H18     5.8796    -2.6493    -1.2099	H	1	noname
47	H19     5.4658     1.7605    -2.2857	H	1	noname
48	H20    -0.1284    -0.7945     0.2982	H	1	noname
@<TRIPOS>BOND
1	1	2	1
2	2	3	1
3	3	4	2
4	4	5	1
5	5	6	2
6	6	7	1
7	6	8	1
8	8	9	2
9	9	10	1
10	10	11	1
11	11	12	2
12	11	13	1
13	13	14	2
14	14	15	1
15	15	16	1
16	16	17	1
17	17	18	1
18	18	19	1
19	19	20	2
20	19	21	1
21	21	22	2
22	22	23	1
23	23	24	1
24	24	25	2
25	24	26	1
26	26	27	2
27	17	28	1
28	9	3	1
29	28	14	1
30	27	21	1
31	1	29	1
32	1	30	1
33	1	31	1
34	4	32	1
35	5	33	1
36	7	34	1
37	7	35	1
38	7	36	1
39	8	37	1
40	10	38	1
41	13	39	1
42	15	40	1
43	15	41	1
44	17	42	1
45	18	43	1
46	22	44	1
47	23	45	1
48	23	46	1
49	27	47	1
50	28	48	1
@<TRIPOS>SUBSTRUCTURE
1	noname	1
