@<TRIPOS>MOLECULE

57 62 1
SMALL
NO_CHARGES
@<TRIPOS>ATOM
1	C1    -5.8799     3.3056     1.8218	C.3	1	noname
2	C2    -6.1129     1.8654     2.2803	C.3	1	noname
3	N1    -5.9137     0.9191     1.1952	N.3	1	noname
4	C3    -4.7567     0.2997     0.8361	C.2	1	noname
5	C4    -5.0049    -0.5189    -0.2614	C.2	1	noname
6	C5    -4.1068    -1.3940    -0.9990	C.2	1	noname
7	C6    -2.8067    -1.2974    -0.9328	C.2	1	noname
8	O1    -2.0717    -0.3944    -0.1876	O.3	1	noname
9	C7    -0.7081    -0.6277    -0.3926	C.2	1	noname
10	C8     0.4449    -0.0260     0.1031	C.2	1	noname
11	C9     1.7164    -0.4346    -0.2453	C.2	1	noname
12	O2     2.8451     0.1981     0.2753	O.3	1	noname
13	C10     4.1083    -0.2470    -0.1137	C.3	1	noname
14	C11     5.2079     0.5231     0.5264	C.2	1	noname
15	C12     4.9607     1.5683     1.4105	C.2	1	noname
16	C13     6.0041     2.2644     1.9848	C.2	1	noname
17	Cl1     5.7171     3.5991     3.1119	Cl	1	noname
18	C14     7.3075     1.9338     1.6901	C.2	1	noname
19	C15     7.5785     0.8994     0.8135	C.2	1	noname
20	C16     6.5176     0.2187     0.2536	C.2	1	noname
21	O3     6.8886    -0.8217    -0.6235	O.3	1	noname
22	C17     8.1982    -1.3574    -0.3675	C.3	1	noname
23	O4     9.0666    -0.2856    -0.5701	O.3	1	noname
24	C18     9.0017     0.5686     0.5061	C.3	1	noname
25	C19     1.8379    -1.4899    -1.1273	C.2	1	noname
26	C20     0.7164    -2.1267    -1.6517	C.2	1	noname
27	C21    -0.5252    -1.6792    -1.2707	C.2	1	noname
28	C22    -1.8535    -2.1371    -1.6420	C.2	1	noname
29	O5    -2.1648    -3.0858    -2.4328	O.2	1	noname
30	C23    -6.3438    -0.3645    -0.5414	C.2	1	noname
31	C24    -7.1878    -0.9082    -1.5046	C.2	1	noname
32	C25    -8.5175    -0.6053    -1.5896	C.2	1	noname
33	C26    -9.0575     0.2853    -0.6753	C.2	1	noname
34	C27    -8.2173     0.8269     0.2828	C.2	1	noname
35	C28    -6.8888     0.5258     0.3686	C.2	1	noname
36	H1    -5.7753     3.9519     2.6933	H	1	noname
37	H2    -4.9706     3.3536     1.2227	H	1	noname
38	H3    -6.7277     3.6378     1.2227	H	1	noname
39	H4    -5.3412     1.6311     3.0136	H	1	noname
40	H5    -7.1654     1.7787     2.5501	H	1	noname
41	H6    -3.7993     0.4354     1.3392	H	1	noname
42	H7    -4.4379    -2.1942    -1.6609	H	1	noname
43	H8     0.3472     0.8071     0.7992	H	1	noname
44	H9     4.1712    -1.2702     0.2568	H	1	noname
45	H10     4.1568    -0.0513    -1.1849	H	1	noname
46	H11     3.9357     1.8456     1.6566	H	1	noname
47	H12     8.1239     2.4904     2.1503	H	1	noname
48	H13     8.2565    -1.6267     0.6871	H	1	noname
49	H14     8.4180    -2.1016    -1.1330	H	1	noname
50	H15     9.4057     0.0020     1.3451	H	1	noname
51	H16     9.4971     1.4817     0.1761	H	1	noname
52	H17     2.8345    -1.8255    -1.4140	H	1	noname
53	H18     0.8087    -2.9604    -2.3478	H	1	noname
54	H19    -6.7846    -1.6110    -2.2337	H	1	noname
55	H20    -9.1311    -1.0620    -2.3661	H	1	noname
56	H21   -10.1137     0.5524    -0.7088	H	1	noname
57	H22    -8.6244     1.5294     1.0100	H	1	noname
@<TRIPOS>BOND
1	1	2	1
2	2	3	1
3	3	4	1
4	4	5	2
5	5	6	1
6	6	7	2
7	7	8	1
8	8	9	1
9	9	10	2
10	10	11	1
11	11	12	1
12	12	13	1
13	13	14	1
14	14	15	2
15	15	16	1
16	16	17	1
17	16	18	2
18	18	19	1
19	19	20	2
20	20	21	1
21	21	22	1
22	22	23	1
23	23	24	1
24	11	25	2
25	25	26	1
26	26	27	2
27	27	28	1
28	28	29	2
29	5	30	1
30	30	31	2
31	31	32	1
32	32	33	2
33	33	34	1
34	34	35	2
35	35	3	1
36	28	7	1
37	35	30	1
38	27	9	1
39	20	14	1
40	24	19	1
41	1	36	1
42	1	37	1
43	1	38	1
44	2	39	1
45	2	40	1
46	4	41	1
47	6	42	1
48	10	43	1
49	13	44	1
50	13	45	1
51	15	46	1
52	18	47	1
53	22	48	1
54	22	49	1
55	24	50	1
56	24	51	1
57	25	52	1
58	26	53	1
59	31	54	1
60	32	55	1
61	33	56	1
62	34	57	1
@<TRIPOS>SUBSTRUCTURE
1	noname	1
