@<TRIPOS>MOLECULE
ZINC000012757891
  58   63    0    0    0
SMALL
USER_CHARGES
NO_NAME
@<TRIPOS>ATOM
    1 C1        0.5148     1.1413    -0.1618 C.3    1 <0>      -0.0800
    2 C2       -0.0177    -0.2660    -0.0785 C.2    1 <0>       0.1500
    3 N3       -0.4629    -0.9687    -1.0765 N.2    1 <0>      -0.2500
    4 N4       -0.8713    -2.2238    -0.6164 N.pl3  1 <0>      -0.3000
    5 C5       -1.4067    -3.2534    -1.4009 C.ar   1 <0>       0.1500
    6 C6       -1.1247    -4.5786    -1.0964 C.ar   1 <0>      -0.1300
    7 C7       -1.6541    -5.5915    -1.8718 C.ar   1 <0>      -0.0900
    8 C8       -2.4641    -5.2871    -2.9505 C.ar   1 <0>      -0.1200
    9 C9       -2.7463    -3.9685    -3.2566 C.ar   1 <0>      -0.1000
   10 C10      -2.2250    -2.9512    -2.4813 C.ar   1 <0>      -0.1100
   11 C11      -0.6564    -2.2711     0.7358 C.2    1 <0>       0.0300
   12 C12      -0.1119    -1.0539     1.1114 C.2    1 <0>      -0.2200
   13 C13       0.1569    -0.9743     2.4840 C.2    1 <0>       0.0400
   14 C14      -0.1522    -2.0701     3.1935 C.2    1 <0>      -0.2800
   15 C15       0.0411    -2.2122     4.6393 C.2    1 <0>       0.6000
   16 O16       0.5136    -1.2938     5.2834 O.2    1 <0>      -0.4900
   17 N17      -0.3044    -3.3598     5.2558 N.am   1 <0>      -0.6700
   18 C18      -0.0213    -3.5368     6.6152 C.ar   1 <0>       0.1200
   19 C19      -0.0405    -2.4502     7.4741 C.ar   1 <0>      -0.0600
   20 C20       0.2418    -2.6314     8.8280 C.ar   1 <0>       0.0000
   21 C21       0.2224    -1.4753     9.7507 C.2    1 <0>       0.2100
   22 N22       0.2973    -0.2039     9.4178 N.2    1 <0>      -0.2700
   23 N23       0.2454     0.5266    10.4761 N.2    1 <0>      -0.2900
   24 C24       0.1307    -0.2285    11.5324 C.2    1 <0>       0.1900
   25 C25       0.0116     0.2222    12.9655 C.3    1 <0>      -0.0400
   26 C26       0.9640    -0.6079    13.8315 C.3    1 <0>      -0.1300
   27 C27       0.2564    -1.8748    14.3019 C.3    1 <0>      -0.1300
   28 C28      -0.7245    -2.3682    13.2396 C.3    1 <0>      -0.1400
   29 C29       0.0350    -2.7125    11.9551 C.3    1 <0>       0.0900
   30 N30       0.1176    -1.5210    11.1105 N.pl3  1 <0>      -0.4700
   31 C31       0.5419    -3.9058     9.3100 C.ar   1 <0>      -0.1000
   32 C32       0.5596    -4.9837     8.4479 C.ar   1 <0>      -0.1300
   33 C33       0.2741    -4.8059     7.1056 C.ar   1 <0>       0.0900
   34 F34       0.2929    -5.8647     6.2667 F      1 <0>      -0.1300
   35 S35      -0.8177    -3.3113     2.1449 S.3    1 <0>       0.2000
   36 H36       1.5880     1.1131    -0.3504 H      1 <0>       0.0900
   37 H37       0.0169     1.6707    -0.9741 H      1 <0>       0.0800
   38 H38       0.3247     1.6579     0.7790 H      1 <0>       0.0900
   39 H39      -0.4919    -4.8170    -0.2543 H      1 <0>       0.1300
   40 H40      -1.4349    -6.6223    -1.6357 H      1 <0>       0.1400
   41 H41      -2.8769    -6.0810    -3.5554 H      1 <0>       0.1300
   42 H42      -3.3787    -3.7339    -4.1001 H      1 <0>       0.1400
   43 H43      -2.4458    -1.9216    -2.7209 H      1 <0>       0.1400
   44 H44       0.5834    -0.0926     2.9391 H      1 <0>       0.1600
   45 H45      -0.7492    -4.0632     4.7575 H      1 <0>       0.4100
   46 H46      -0.2730    -1.4654     7.0964 H      1 <0>       0.1700
   47 H47       0.2772     1.2767    13.0393 H      1 <0>       0.1000
   48 H48      -1.0127     0.0780    13.3091 H      1 <0>       0.1000
   49 H49       1.8430    -0.8790    13.2467 H      1 <0>       0.0700
   50 H50       1.2716    -0.0213    14.6972 H      1 <0>       0.0800
   51 H51       0.9978    -2.6502    14.4944 H      1 <0>       0.0700
   52 H52      -0.2876    -1.6620    15.2222 H      1 <0>       0.0800
   53 H53      -1.2390    -3.2567    13.6058 H      1 <0>       0.0900
   54 H54      -1.4555    -1.5873    13.0303 H      1 <0>       0.0800
   55 H55       1.0386    -3.0555    12.2067 H      1 <0>       0.0900
   56 H56      -0.4951    -3.4997    11.4190 H      1 <0>       0.1000
   57 H57       0.7609    -4.0490    10.3578 H      1 <0>       0.1400
   58 H58       0.7925    -5.9693     8.8229 H      1 <0>       0.1500
@<TRIPOS>BOND
   1    1    2 1
   2    1   36 1
   3    1   37 1
   4    1   38 1
   5    2   12 1
   6    2    3 2
   7    3    4 1
   8    4    5 1
   9    4   11 1
  10    5   10 ar
  11    5    6 ar
  12    6    7 ar
  13    6   39 1
  14    7    8 ar
  15    7   40 1
  16    8    9 ar
  17    8   41 1
  18    9   10 ar
  19    9   42 1
  20   10   43 1
  21   11   35 1
  22   11   12 2
  23   12   13 1
  24   13   14 2
  25   13   44 1
  26   14   15 1
  27   14   35 1
  28   15   16 2
  29   15   17 am
  30   17   18 1
  31   17   45 1
  32   18   33 ar
  33   18   19 ar
  34   19   20 ar
  35   19   46 1
  36   20   21 1
  37   20   31 ar
  38   21   30 1
  39   21   22 2
  40   22   23 1
  41   23   24 2
  42   24   30 1
  43   24   25 1
  44   25   26 1
  45   25   47 1
  46   25   48 1
  47   26   27 1
  48   26   49 1
  49   26   50 1
  50   27   28 1
  51   27   51 1
  52   27   52 1
  53   28   29 1
  54   28   53 1
  55   28   54 1
  56   29   30 1
  57   29   55 1
  58   29   56 1
  59   31   32 ar
  60   31   57 1
  61   32   33 ar
  62   32   58 1
  63   33   34 1
