@<TRIPOS>MOLECULE

45 47 1
SMALL
NO_CHARGES
@<TRIPOS>ATOM
1	C1    -7.0199     0.2908     1.9611	C.3	1	noname
2	S1    -6.7044    -0.7903     1.0591	S.3	1	noname
3	C2    -5.9115    -0.3245    -0.4834	C.2	1	noname
4	C3    -6.7025    -0.0328    -1.5810	C.2	1	noname
5	C4    -6.1168     0.3279    -2.7803	C.2	1	noname
6	C5    -4.7295     0.3845    -2.8357	C.2	1	noname
7	C6    -3.9652     0.0861    -1.7162	C.2	1	noname
8	C7    -4.5360    -0.2756    -0.5135	C.2	1	noname
9	N1    -3.7870    -0.5874     0.6412	N.3	1	noname
10	C8    -2.3648    -0.5507     0.7055	C.2	1	noname
11	O1    -1.7398    -0.2297    -0.2981	O.2	1	noname
12	C9    -1.8385    -0.9151     2.0041	C.2	1	noname
13	C10    -0.5168    -0.9314     2.2392	C.2	1	noname
14	C11     0.1169    -1.3022     3.5659	C.3	1	noname
15	S2     1.8649    -0.9008     3.2905	S.3	1	noname
16	C12     1.4622     0.3547     1.8559	C.3	1	noname
17	N2     2.6326    -0.0961     0.9736	N.3	1	noname
18	C13     3.4799     0.9422     0.5659	C.2	1	noname
19	O2     3.2383     2.1236     0.9318	O.2	1	noname
20	C14     4.6661     0.7321    -0.2873	C.2	1	noname
21	C15     5.4308     1.7413    -0.6445	C.2	1	noname
22	C16     6.6347     1.6391    -1.4917	C.3	1	noname
23	C17     6.9239     0.2562    -1.9142	C.2	1	noname
24	O3     7.9487     0.0494    -2.6461	O.2	1	noname
25	N3     6.0738    -0.7940    -1.5066	N.2	1	noname
26	C18     5.0420    -0.5911    -0.7655	C.2	1	noname
27	N4     0.4179    -0.6062     1.2636	N.3	1	noname
28	H1    -6.9194    -0.0537     2.9903	H	1	noname
29	H2    -6.3350     1.1207     1.7872	H	1	noname
30	H3    -8.0437     0.6221     1.7872	H	1	noname
31	H4    -7.7882    -0.0872    -1.5008	H	1	noname
32	H5    -6.7280     0.5598    -3.6525	H	1	noname
33	H6    -4.2361     0.6656    -3.7661	H	1	noname
34	H7    -2.8785     0.1376    -1.7839	H	1	noname
35	H8    -4.2990    -0.8524     1.4705	H	1	noname
36	H9    -2.4700    -1.1915     2.8485	H	1	noname
37	H10    -0.3237    -0.6266     4.2990	H	1	noname
38	H11    -0.0212    -2.3789     3.6648	H	1	noname
39	H12     1.2502     1.4238     1.8719	H	1	noname
40	H13     2.8371    -1.0385     0.6732	H	1	noname
41	H14     5.0602     2.6792    -0.2310	H	1	noname
42	H15     6.4091     2.1914    -2.4039	H	1	noname
43	H16     7.4720     1.9431    -0.8635	H	1	noname
44	H17     4.5022    -1.5130    -0.5492	H	1	noname
45	H18     0.3526    -0.9849     0.3296	H	1	noname
@<TRIPOS>BOND
1	1	2	1
2	2	3	1
3	3	4	2
4	4	5	1
5	5	6	2
6	6	7	1
7	7	8	2
8	8	9	1
9	9	10	1
10	10	11	2
11	10	12	1
12	12	13	2
13	13	14	1
14	14	15	1
15	15	16	1
16	16	17	1
17	17	18	1
18	18	19	2
19	18	20	1
20	20	21	2
21	21	22	1
22	22	23	1
23	23	24	2
24	23	25	1
25	25	26	2
26	16	27	1
27	8	3	1
28	27	13	1
29	26	20	1
30	1	28	1
31	1	29	1
32	1	30	1
33	4	31	1
34	5	32	1
35	6	33	1
36	7	34	1
37	9	35	1
38	12	36	1
39	14	37	1
40	14	38	1
41	16	39	1
42	17	40	1
43	21	41	1
44	22	42	1
45	22	43	1
46	26	44	1
47	27	45	1
@<TRIPOS>SUBSTRUCTURE
1	noname	1
