@<TRIPOS>MOLECULE
ZINC000003809192
70    72    1     0     0
SMALL
USER_CHARGES
@<TRIPOS>ATOM
1      C1      0.3678    1.5405   -0.4401 C.3      1 ZINC000003809192   -0.1500
2      C2      0.2023    0.0940    0.0302 C.3      1 ZINC000003809192   -0.1200
3      C3      1.0205   -0.1248    1.3044 C.3      1 ZINC000003809192   -0.1500
4      C4     -1.2746   -0.1827    0.3186 C.3      1 ZINC000003809192    0.1200
5      N5     -1.4537   -1.6032    0.6292 N.am     1 ZINC000003809192   -0.9900
6      C6     -1.2714   -2.0816    2.0018 C.3      1 ZINC000003809192    0.0900
7      C7     -2.5657   -1.8731    2.7906 C.3      1 ZINC000003809192    0.0800
8      H8     -2.8629   -0.8261    2.7311 H        1 ZINC000003809192    0.1100
9      O9     -3.5975   -2.6932    2.2383 O.3      1 ZINC000003809192   -0.5500
10     C10    -2.3383   -2.2563    4.2543 C.3      1 ZINC000003809192    0.1400
11     H11    -1.4927   -1.6936    4.6500 H        1 ZINC000003809192    0.1000
12     C12    -2.0432   -3.7545    4.3493 C.3      1 ZINC000003809192   -0.1100
13     C13    -1.6987   -4.1094    5.7729 C.ar     1 ZINC000003809192   -0.0600
14     C14    -0.3854   -4.0534    6.2006 C.ar     1 ZINC000003809192   -0.1100
15     C15    -0.0693   -4.3788    7.5064 C.ar     1 ZINC000003809192   -0.1100
16     C16    -1.0666   -4.7599    8.3845 C.ar     1 ZINC000003809192   -0.1200
17     C17    -2.3801   -4.8150    7.9570 C.ar     1 ZINC000003809192   -0.1100
18     C18    -2.6966   -4.4854    6.6524 C.ar     1 ZINC000003809192   -0.1100
19     N19    -3.5395   -1.9448    5.0330 N.am     1 ZINC000003809192   -0.7000
20     C20    -3.4425   -1.7103    6.3566 C.2      1 ZINC000003809192    0.6500
21     O21    -2.3588   -1.7572    6.9042 O.2      1 ZINC000003809192   -0.5500
22     O22    -4.5464   -1.4240    7.0722 O.3      1 ZINC000003809192   -0.3600
23     C23    -4.3670   -1.1828    8.4927 C.3      1 ZINC000003809192    0.0800
24     H24    -3.3783   -0.7696    8.6925 H        1 ZINC000003809192    0.1100
25     C25    -5.4783   -0.2454    9.0389 C.3      1 ZINC000003809192   -0.1500
26     C26    -5.5458   -0.7002   10.5186 C.3      1 ZINC000003809192    0.0500
27     O27    -5.3287   -2.1198   10.4849 O.3      1 ZINC000003809192   -0.3800
28     C28    -4.5956   -2.4768    9.3030 C.3      1 ZINC000003809192    0.0400
29     S29    -1.8621   -2.6681   -0.5714 S.o2     1 ZINC000003809192    2.7000
30     O30    -2.4872   -3.7728    0.0676 O.2      1 ZINC000003809192   -0.9500
31     O31    -2.4903   -1.9024   -1.5904 O.2      1 ZINC000003809192   -0.9600
32     C32    -0.3597   -3.2774   -1.2616 C.ar     1 ZINC000003809192   -0.7400
33     C33     0.2300   -2.6158   -2.3231 C.ar     1 ZINC000003809192    0.0300
34     C34     1.4075   -3.0906   -2.8664 C.ar     1 ZINC000003809192   -0.2200
35     C35     1.9996   -4.2341   -2.3453 C.ar     1 ZINC000003809192    0.2700
36     N36     3.1908   -4.7168   -2.8921 N.pl3    1 ZINC000003809192   -0.8700
37     C37     1.4045   -4.8962   -1.2789 C.ar     1 ZINC000003809192   -0.2200
38     C38     0.2300   -4.4128   -0.7368 C.ar     1 ZINC000003809192    0.0300
39     H39     1.4199    1.7376   -0.6456 H        1 ZINC000003809192    0.0600
40     H40    -0.2151    1.6964   -1.3478 H        1 ZINC000003809192    0.0600
41     H41     0.0164    2.2180    0.3381 H        1 ZINC000003809192    0.0600
42     H42     0.5537   -0.5835   -0.7480 H        1 ZINC000003809192    0.0700
43     H43     0.5816    0.4485    2.1209 H        1 ZINC000003809192    0.0600
44     H44     1.0168   -1.1841    1.5612 H        1 ZINC000003809192    0.0600
45     H45     2.0460    0.2053    1.1388 H        1 ZINC000003809192    0.0500
46     H46    -1.5976    0.4185    1.1685 H        1 ZINC000003809192    0.0900
47     H47    -1.8704    0.0758   -0.5568 H        1 ZINC000003809192    0.1000
48     H48    -1.0220   -3.1425    1.9867 H        1 ZINC000003809192    0.0900
49     H49    -0.4632   -1.5250    2.4762 H        1 ZINC000003809192    0.1000
50     H50    -3.4005   -3.6397    2.2582 H        1 ZINC000003809192    0.3900
51     H51    -2.9221   -4.3185    4.0368 H        1 ZINC000003809192    0.0800
52     H52    -1.2033   -4.0013    3.6999 H        1 ZINC000003809192    0.0900
53     H53     0.3938   -3.7557    5.5146 H        1 ZINC000003809192    0.1100
54     H54     0.9568   -4.3358    7.8405 H        1 ZINC000003809192    0.1200
55     H55    -0.8196   -5.0149    9.4045 H        1 ZINC000003809192    0.1200
56     H56    -3.1592   -5.1130    8.6429 H        1 ZINC000003809192    0.1100
57     H57    -3.7228   -4.5285    6.3183 H        1 ZINC000003809192    0.1100
58     H58    -4.4046   -1.9073    4.5959 H        1 ZINC000003809192    0.4100
59     H59    -5.1824    0.8009    8.9626 H        1 ZINC000003809192    0.0900
60     H60    -6.4261   -0.4217    8.5301 H        1 ZINC000003809192    0.0900
61     H61    -4.7643   -0.2117   11.1005 H        1 ZINC000003809192    0.0700
62     H62    -6.5266   -0.4774   10.9385 H        1 ZINC000003809192    0.1000
63     H63    -5.1738   -3.1846    8.7090 H        1 ZINC000003809192    0.0800
64     H64    -3.6393   -2.9199    9.5808 H        1 ZINC000003809192    0.0800
65     H65    -0.2311   -1.7271   -2.7280 H        1 ZINC000003809192    0.1400
66     H66     1.8674   -2.5737   -3.6957 H        1 ZINC000003809192    0.1300
67     H67     3.6055   -4.2535   -3.6365 H        1 ZINC000003809192    0.4000
68     H68     3.6033   -5.5154   -2.5274 H        1 ZINC000003809192    0.4000
69     H69     1.8620   -5.7857   -0.8717 H        1 ZINC000003809192    0.1300
70     H70    -0.2332   -4.9270    0.0923 H        1 ZINC000003809192    0.1400
@<TRIPOS>BOND
1     1     2     1
2     1     39    1
3     1     40    1
4     1     41    1
5     2     3     1
6     2     4     1
7     2     42    1
8     3     43    1
9     3     44    1
10    3     45    1
11    4     5     1
12    4     46    1
13    4     47    1
14    5     6     1
15    5     29    am
16    6     7     1
17    6     48    1
18    6     49    1
19    7     8     1
20    7     9     1
21    7     10    1
22    9     50    1
23    10    11    1
24    10    12    1
25    10    19    1
26    12    13    1
27    12    51    1
28    12    52    1
29    13    18    ar
30    13    14    ar
31    14    15    ar
32    14    53    1
33    15    16    ar
34    15    54    1
35    16    17    ar
36    16    55    1
37    17    18    ar
38    17    56    1
39    18    57    1
40    19    20    am
41    19    58    1
42    20    21    2
43    20    22    1
44    22    23    1
45    23    24    1
46    23    28    1
47    23    25    1
48    25    26    1
49    25    59    1
50    25    60    1
51    26    27    1
52    26    61    1
53    26    62    1
54    27    28    1
55    28    63    1
56    28    64    1
57    29    30    2
58    29    31    2
59    29    32    1
60    32    38    ar
61    32    33    ar
62    33    34    ar
63    33    65    1
64    34    35    ar
65    34    66    1
66    35    36    1
67    35    37    ar
68    36    67    1
69    36    68    1
70    37    38    ar
71    37    69    1
72    38    70    1
@<TRIPOS>SUBSTRUCTURE
1   ZINC000003809192 1     RESIDUE    1   A     ZIN   1
