@<TRIPOS>MOLECULE
ZINC000003941496
103   105   1     0     0
SMALL
USER_CHARGES
@<TRIPOS>ATOM
1      C1     -0.3185    2.9513   -2.2591 C.3      1 ZINC000003941496    0.0600
2      O2     -0.6649    1.5445   -2.1628 O.3      1 ZINC000003941496   -0.3700
3      C3      0.2660    0.6572   -2.5612 C.2      1 ZINC000003941496    0.6500
4      O4      1.3386    1.0476   -2.9778 O.2      1 ZINC000003941496   -0.5700
5      N5      0.0083   -0.6642   -2.4977 N.am     1 ZINC000003941496   -0.6900
6      C6      1.0212   -1.6297   -2.9311 C.3      1 ZINC000003941496    0.1600
7      H7      1.5759   -1.2202   -3.7753 H        1 ZINC000003941496    0.1100
8      C8      0.3475   -2.9119   -3.3472 C.2      1 ZINC000003941496    0.5200
9      O9     -0.7350   -3.2055   -2.8860 O.2      1 ZINC000003941496   -0.5000
10     N10     0.9480   -3.7324   -4.2320 N.am     1 ZINC000003941496   -0.7200
11     C11     0.2476   -4.9235   -4.7187 C.3      1 ZINC000003941496    0.1200
12     H12    -0.3660   -5.3367   -3.9182 H        1 ZINC000003941496    0.1000
13     C13    -0.6456   -4.5423   -5.9010 C.3      1 ZINC000003941496   -0.0900
14     C14    -1.7294   -3.6068   -5.4307 C.ar     1 ZINC000003941496   -0.0700
15     C15    -2.9322   -4.1150   -4.9770 C.ar     1 ZINC000003941496   -0.1100
16     C16    -3.9264   -3.2569   -4.5456 C.ar     1 ZINC000003941496   -0.1100
17     C17    -3.7176   -1.8906   -4.5674 C.ar     1 ZINC000003941496   -0.1200
18     C18    -2.5144   -1.3824   -5.0203 C.ar     1 ZINC000003941496   -0.1100
19     C19    -1.5187   -2.2407   -5.4477 C.ar     1 ZINC000003941496   -0.1100
20     C20     1.2706   -5.9685   -5.1684 C.3      1 ZINC000003941496    0.1100
21     H21     0.7494   -6.8547   -5.5306 H        1 ZINC000003941496    0.1100
22     O22     2.0750   -5.4268   -6.2179 O.3      1 ZINC000003941496   -0.5200
23     C23     2.1638   -6.3496   -3.9861 C.3      1 ZINC000003941496    0.0000
24     N24     3.1460   -7.3530   -4.4179 N.3      1 ZINC000003941496   -0.2700
25     C25     4.0972   -7.6564   -3.3404 C.3      1 ZINC000003941496    0.0700
26     C26     5.1745   -8.5708   -3.8640 C.ar     1 ZINC000003941496   -0.0700
27     C27     5.0656   -9.9379   -3.6838 C.ar     1 ZINC000003941496   -0.1200
28     C28     6.0490  -10.7801   -4.1617 C.ar     1 ZINC000003941496   -0.0700
29     C29     7.1533  -10.2507   -4.8268 C.ar     1 ZINC000003941496   -0.0500
30     C30     8.2134  -11.1509   -5.3431 C.ar     1 ZINC000003941496    0.1700
31     C31     9.3165  -10.6125   -6.0017 C.ar     1 ZINC000003941496   -0.1600
32     C32    10.2977  -11.4651   -6.4780 C.ar     1 ZINC000003941496   -0.0700
33     C33    10.1429  -12.8295   -6.2795 C.ar     1 ZINC000003941496   -0.1800
34     C34     9.0220  -13.2955   -5.6170 C.ar     1 ZINC000003941496    0.1100
35     N35     8.1057  -12.4618   -5.1690 N.ar     1 ZINC000003941496   -0.4800
36     C36     7.2579   -8.8726   -5.0054 C.ar     1 ZINC000003941496   -0.1000
37     C37     6.2659   -8.0403   -4.5280 C.ar     1 ZINC000003941496   -0.0900
38     N38     2.5256   -8.4880   -4.8572 N.am     1 ZINC000003941496   -0.5800
39     C39     2.6947   -8.8991   -6.1295 C.2      1 ZINC000003941496    0.5400
40     O40     3.4655   -8.3122   -6.8591 O.2      1 ZINC000003941496   -0.4800
41     C41     1.9261  -10.0882   -6.6456 C.3      1 ZINC000003941496    0.1600
42     H42     0.8661   -9.9580   -6.4278 H        1 ZINC000003941496    0.1100
43     N43     2.1167  -10.2018   -8.0937 N.am     1 ZINC000003941496   -0.6900
44     C44     1.1893  -10.8232   -8.8488 C.2      1 ZINC000003941496    0.6500
45     O45     0.1951  -11.2893   -8.3285 O.2      1 ZINC000003941496   -0.5700
46     O46     1.3645  -10.9276  -10.1796 O.3      1 ZINC000003941496   -0.3700
47     C47     0.3251  -11.6096  -10.9299 C.3      1 ZINC000003941496    0.0600
48     C48     2.4347  -11.3596   -5.9630 C.3      1 ZINC000003941496   -0.0700
49     C49     2.1448  -11.2837   -4.4627 C.3      1 ZINC000003941496   -0.1600
50     C50     1.7248  -12.5771   -6.5587 C.3      1 ZINC000003941496   -0.1300
51     C51     3.9429  -11.4893   -6.1852 C.3      1 ZINC000003941496   -0.1600
52     C52     1.9846   -1.9113   -1.7763 C.3      1 ZINC000003941496   -0.0700
53     C53     1.2259   -2.5874   -0.6326 C.3      1 ZINC000003941496   -0.1400
54     C54     3.1053   -2.8335   -2.2603 C.3      1 ZINC000003941496   -0.1500
55     C55     2.5859   -0.5944   -1.2812 C.3      1 ZINC000003941496   -0.1300
56     H56     0.5593    3.1522   -1.6450 H        1 ZINC000003941496    0.0600
57     H57    -0.1006    3.2016   -3.2974 H        1 ZINC000003941496    0.0600
58     H58    -1.1543    3.5562   -1.9073 H        1 ZINC000003941496    0.1000
59     H59    -0.8480   -0.9759   -2.1651 H        1 ZINC000003941496    0.4200
60     H60     1.8440   -3.5342   -4.5464 H        1 ZINC000003941496    0.4000
61     H61    -0.0456   -4.0483   -6.6652 H        1 ZINC000003941496    0.0800
62     H62    -1.0980   -5.4415   -6.3192 H        1 ZINC000003941496    0.0800
63     H63    -3.0954   -5.1825   -4.9599 H        1 ZINC000003941496    0.1100
64     H64    -4.8664   -3.6539   -4.1918 H        1 ZINC000003941496    0.1200
65     H65    -4.4946   -1.2201   -4.2310 H        1 ZINC000003941496    0.1200
66     H66    -2.3514   -0.3149   -5.0377 H        1 ZINC000003941496    0.1100
67     H67    -0.5787   -1.8437   -5.8015 H        1 ZINC000003941496    0.1100
68     H68     2.5686   -4.6343   -5.9661 H        1 ZINC000003941496    0.3700
69     H69     2.6849   -5.4634   -3.6240 H        1 ZINC000003941496    0.1000
70     H70     1.5502   -6.7629   -3.1856 H        1 ZINC000003941496    0.0600
71     H71     4.5483   -6.7309   -2.9827 H        1 ZINC000003941496    0.1000
72     H72     3.5726   -8.1457   -2.5197 H        1 ZINC000003941496    0.0500
73     H73     4.2095  -10.3471   -3.1679 H        1 ZINC000003941496    0.1200
74     H74     5.9631  -11.8473   -4.0202 H        1 ZINC000003941496    0.1300
75     H75     9.4048   -9.5449   -6.1391 H        1 ZINC000003941496    0.1400
76     H76    11.1641  -11.0769   -6.9928 H        1 ZINC000003941496    0.1400
77     H77    10.8903  -13.5210   -6.6393 H        1 ZINC000003941496    0.1400
78     H78     8.8984  -14.3570   -5.4609 H        1 ZINC000003941496    0.1600
79     H79     8.1118   -8.4570   -5.5198 H        1 ZINC000003941496    0.1300
80     H80     6.3457   -6.9721   -4.6662 H        1 ZINC000003941496    0.1300
81     H81     1.9633   -8.9980   -4.2534 H        1 ZINC000003941496    0.3800
82     H82     2.9104   -9.8297   -8.5091 H        1 ZINC000003941496    0.4200
83     H83    -0.6212  -11.0847  -10.7993 H        1 ZINC000003941496    0.0600
84     H84     0.5899  -11.6237  -11.9871 H        1 ZINC000003941496    0.1000
85     H85     0.2264  -12.6325  -10.5664 H        1 ZINC000003941496    0.0600
86     H86     1.0686  -11.2163   -4.3034 H        1 ZINC000003941496    0.0600
87     H87     2.5292  -12.1783   -3.9727 H        1 ZINC000003941496    0.0700
88     H88     2.6301  -10.4026   -4.0429 H        1 ZINC000003941496    0.0600
89     H89     1.9313  -12.6311   -7.6276 H        1 ZINC000003941496    0.0500
90     H90     2.0871  -13.4828   -6.0724 H        1 ZINC000003941496    0.0500
91     H91     0.6503  -12.4846   -6.4004 H        1 ZINC000003941496    0.0700
92     H92     4.4529  -10.6477   -5.7166 H        1 ZINC000003941496    0.0800
93     H93     4.2965  -12.4206   -5.7427 H        1 ZINC000003941496    0.0600
94     H94     4.1537  -11.4922   -7.2546 H        1 ZINC000003941496    0.0500
95     H95     0.7975   -3.5256   -0.9853 H        1 ZINC000003941496    0.0600
96     H96     1.9122   -2.7879    0.1902 H        1 ZINC000003941496    0.0600
97     H97     0.4275   -1.9303   -0.2877 H        1 ZINC000003941496    0.0600
98     H98     3.5864   -2.3933   -3.1337 H        1 ZINC000003941496    0.0600
99     H99     3.8405   -2.9600   -1.4656 H        1 ZINC000003941496    0.0700
100    H100    2.6874   -3.8044   -2.5265 H        1 ZINC000003941496    0.0600
101    H101    1.7875    0.0627   -0.9363 H        1 ZINC000003941496    0.0500
102    H102    3.2722   -0.7949   -0.4584 H        1 ZINC000003941496    0.0500
103    H103    3.1264   -0.1127   -2.0960 H        1 ZINC000003941496    0.0700
@<TRIPOS>BOND
1     1     2     1
2     1     56    1
3     1     57    1
4     1     58    1
5     2     3     1
6     3     4     2
7     3     5     am
8     5     6     1
9     5     59    1
10    6     7     1
11    6     8     1
12    6     52    1
13    8     9     2
14    8     10    am
15    10    11    1
16    10    60    1
17    11    12    1
18    11    13    1
19    11    20    1
20    13    14    1
21    13    61    1
22    13    62    1
23    14    19    ar
24    14    15    ar
25    15    16    ar
26    15    63    1
27    16    17    ar
28    16    64    1
29    17    18    ar
30    17    65    1
31    18    19    ar
32    18    66    1
33    19    67    1
34    20    21    1
35    20    22    1
36    20    23    1
37    22    68    1
38    23    24    1
39    23    69    1
40    23    70    1
41    24    25    1
42    24    38    1
43    25    26    1
44    25    71    1
45    25    72    1
46    26    37    ar
47    26    27    ar
48    27    28    ar
49    27    73    1
50    28    29    ar
51    28    74    1
52    29    30    1
53    29    36    ar
54    30    35    ar
55    30    31    ar
56    31    32    ar
57    31    75    1
58    32    33    ar
59    32    76    1
60    33    34    ar
61    33    77    1
62    34    35    ar
63    34    78    1
64    36    37    ar
65    36    79    1
66    37    80    1
67    38    39    am
68    38    81    1
69    39    40    2
70    39    41    1
71    41    42    1
72    41    43    1
73    41    48    1
74    43    44    am
75    43    82    1
76    44    45    2
77    44    46    1
78    46    47    1
79    47    83    1
80    47    84    1
81    47    85    1
82    48    49    1
83    48    50    1
84    48    51    1
85    49    86    1
86    49    87    1
87    49    88    1
88    50    89    1
89    50    90    1
90    50    91    1
91    51    92    1
92    51    93    1
93    51    94    1
94    52    53    1
95    52    54    1
96    52    55    1
97    53    95    1
98    53    96    1
99    53    97    1
100   54    98    1
101   54    99    1
102   54    100   1
103   55    101   1
104   55    102   1
105   55    103   1
@<TRIPOS>SUBSTRUCTURE
1   ZINC000003941496 1     RESIDUE    1   A     ZIN   1
