REMARK  16 active torsions:
REMARK  status: ('A' for Active; 'I' for Inactive)
REMARK    1  A    between atoms: C4_4  and  C5_5 
REMARK    2  A    between atoms: C5_5  and  O6_6 
REMARK    3  A    between atoms: O6_6  and  C7_7 
REMARK    4  A    between atoms: C10_10  and  C11_11 
REMARK    5  A    between atoms: C11_11  and  C12_12 
REMARK    6  A    between atoms: C12_12  and  N14_13 
REMARK    7  A    between atoms: C12_12  and  C29_25 
REMARK       I    between atoms: N14_13  and  C15_14 
REMARK    8  A    between atoms: C15_14  and  O17_16 
REMARK    9  A    between atoms: O17_16  and  C18_17 
REMARK   10  A    between atoms: C29_25  and  O31_26 
REMARK   11  A    between atoms: C29_25  and  C32_27 
REMARK   12  A    between atoms: C32_27  and  N33_28 
REMARK   13  A    between atoms: N33_28  and  C34_29 
REMARK   14  A    between atoms: N33_28  and  S38_33 
REMARK   15  A    between atoms: C34_29  and  C35_30 
REMARK   16  A    between atoms: S38_33  and  C41_36 
ROOT
ATOM      1  C12 ZIN A   1      -6.292  -9.057  -1.169  0.00  0.00     0.250 C 
ENDROOT
BRANCH   1   2
ATOM      2  C11 ZIN A   1      -6.293  -8.573   0.283  0.00  0.00     0.100 C 
BRANCH   2   3
ATOM      3  C10 ZIN A   1      -5.304  -7.446   0.437  0.00  0.00    -0.120 A 
ATOM      4  C9  ZIN A   1      -5.712  -6.139   0.244  0.00  0.00     0.040 A 
ATOM      5  C8  ZIN A   1      -4.807  -5.104   0.385  0.00  0.00    -0.070 A 
ATOM      6  C7  ZIN A   1      -3.489  -5.377   0.721  0.00  0.00     0.130 A 
ATOM      7  C51 ZIN A   1      -3.082  -6.690   0.909  0.00  0.00    -0.020 A 
ATOM      8  C50 ZIN A   1      -3.991  -7.721   0.772  0.00  0.00     0.050 A 
BRANCH   6   9
ATOM      9  O6  ZIN A   1      -2.598  -4.361   0.860  0.00  0.00    -0.310 OA
BRANCH   9  10
ATOM     10  C5  ZIN A   1      -3.088  -3.035   0.652  0.00  0.00     0.300 C 
BRANCH  10  11
ATOM     11  C4  ZIN A   1      -1.965  -2.049   0.848  0.00  0.00     0.060 A 
ATOM     12  N3  ZIN A   1      -2.129  -0.747   0.717  0.00  0.00    -0.470 NA
ATOM     13  C2  ZIN A   1      -1.094  -0.002   0.909  0.00  0.00     0.050 A 
ATOM     14  C1  ZIN A   1      -1.082   1.501   0.805  0.00  0.00     0.180 C 
ATOM     15  S53 ZIN A   1       0.265  -0.967   1.291  0.00  0.00     0.130 SA
ATOM     16  C52 ZIN A   1      -0.723  -2.421   1.167  0.00  0.00    -0.060 A 
ENDBRANCH  10  11
ENDBRANCH   9  10
ENDBRANCH   6   9
ENDBRANCH   2   3
ENDBRANCH   1   2
BRANCH   1  17
ATOM     17  N14 ZIN A   1      -6.784  -7.987  -2.040  0.00  0.00    -0.700 N 
ATOM     18  C15 ZIN A   1      -8.025  -7.490  -1.863  0.00  0.00     0.650 C 
ATOM     19  O16 ZIN A   1      -8.735  -7.930  -0.981  0.00  0.00    -0.560 OA
ATOM     20  H63 ZIN A   1      -6.217  -7.636  -2.745  0.00  0.00     0.410 HD
BRANCH  18  21
ATOM     21  O17 ZIN A   1      -8.477  -6.508  -2.664  0.00  0.00    -0.350 OA
BRANCH  21  22
ATOM     22  C18 ZIN A   1      -9.822  -6.021  -2.416  0.00  0.00     0.190 C 
ATOM     23  C27 ZIN A   1     -10.449  -5.476  -3.715  0.00  0.00    -0.030 C 
ATOM     24  C22 ZIN A   1     -10.602  -3.948  -3.455  0.00  0.00     0.340 C 
ATOM     25  C26 ZIN A   1      -9.372  -5.482  -4.861  0.00  0.00     0.050 C 
ATOM     26  O21 ZIN A   1      -9.701  -3.663  -2.362  0.00  0.00    -0.370 OA
ATOM     27  O24 ZIN A   1     -10.130  -3.253  -4.618  0.00  0.00    -0.360 OA
ATOM     28  C20 ZIN A   1      -9.791  -4.797  -1.474  0.00  0.00     0.220 C 
ATOM     29  C25 ZIN A   1      -9.759  -4.197  -5.636  0.00  0.00     0.210 C 
ENDBRANCH  21  22
ENDBRANCH  18  21
ENDBRANCH   1  17
BRANCH   1  30
ATOM     30  C29 ZIN A   1      -7.202 -10.280  -1.299  0.00  0.00     0.200 C 
BRANCH  30  31
ATOM     31  O31 ZIN A   1      -6.722 -11.323  -0.448  0.00  0.00    -0.540 OA
ATOM     32  H70 ZIN A   1      -5.845 -11.653  -0.687  0.00  0.00     0.370 HD
ENDBRANCH  30  31
BRANCH  30  33
ATOM     33  C32 ZIN A   1      -7.201 -10.764  -2.750  0.00  0.00     0.270 C 
BRANCH  33  34
ATOM     34  N33 ZIN A   1      -8.177 -11.846  -2.905  0.00  0.00    -0.980 N 
BRANCH  34  35
ATOM     35  C34 ZIN A   1      -9.603 -11.534  -3.028  0.00  0.00     0.290 C 
BRANCH  35  36
ATOM     36  C35 ZIN A   1      -9.944 -11.282  -4.498  0.00  0.00    -0.040 C 
ATOM     37  C36 ZIN A   1     -11.455 -11.089  -4.645  0.00  0.00     0.020 C 
ATOM     38  C37 ZIN A   1      -9.220 -10.024  -4.982  0.00  0.00     0.020 C 
ENDBRANCH  35  36
ENDBRANCH  34  35
BRANCH  34  39
ATOM     39  S38 ZIN A   1      -7.668 -13.421  -2.940  0.00  0.00     2.700 S 
ATOM     40  O39 ZIN A   1      -8.596 -14.125  -3.753  0.00  0.00    -0.950 OA
ATOM     41  O40 ZIN A   1      -6.272 -13.386  -3.205  0.00  0.00    -0.950 OA
BRANCH  39  42
ATOM     42  C41 ZIN A   1      -7.847 -14.064  -1.309  0.00  0.00    -0.670 A 
ATOM     43  C49 ZIN A   1      -9.071 -14.555  -0.892  0.00  0.00     0.150 A 
ATOM     44  C48 ZIN A   1      -9.213 -15.066   0.388  0.00  0.00     0.010 A 
ATOM     45  C44 ZIN A   1      -8.123 -15.073   1.256  0.00  0.00     0.090 A 
ATOM     46  O47 ZIN A   1     -10.288 -15.606   1.032  0.00  0.00    -0.300 OA
ATOM     47  C43 ZIN A   1      -6.903 -14.573   0.834  0.00  0.00     0.030 A 
ATOM     48  O45 ZIN A   1      -8.517 -15.616   2.445  0.00  0.00    -0.300 OA
ATOM     49  C42 ZIN A   1      -6.767 -14.070  -0.447  0.00  0.00     0.170 A 
ATOM     50  C46 ZIN A   1      -9.956 -15.567   2.433  0.00  0.00     0.440 C 
ENDBRANCH  39  42
ENDBRANCH  34  39
ENDBRANCH  33  34
ENDBRANCH  30  33
ENDBRANCH   1  30
TORSDOF 16
