@<TRIPOS>MOLECULE
ZINC000003941829
73    75    1     0     0
SMALL
USER_CHARGES
@<TRIPOS>ATOM
1      C1      0.4306    1.5378   -0.3999 C.3      1 ZINC000003941829   -0.1400
2      C2      0.1936    0.0908    0.0372 C.3      1 ZINC000003941829   -0.1200
3      C3      0.8848   -0.1561    1.3797 C.3      1 ZINC000003941829   -0.1500
4      C4     -1.3089   -0.1581    0.1838 C.3      1 ZINC000003941829    0.1300
5      N5     -1.5439   -1.5769    0.4631 N.am     1 ZINC000003941829   -0.9700
6      C6     -1.5004   -2.0690    1.8423 C.3      1 ZINC000003941829    0.1100
7      C7     -2.8553   -1.8306    2.5118 C.3      1 ZINC000003941829    0.1300
8      H8     -3.1179   -0.7755    2.4349 H        1 ZINC000003941829    0.0600
9      O9     -3.8536   -2.6187    1.8605 O.3      1 ZINC000003941829   -0.7200
10     P10    -5.1449   -1.9793    1.1423 P.3      1 ZINC000003941829    2.1100
11     O11    -5.9154   -1.0740    2.1627 O.co2    1 ZINC000003941829   -1.1900
12     O12    -4.6872   -1.1145   -0.0813 O.co2    1 ZINC000003941829   -1.1700
13     O13    -6.0887   -3.1274    0.6465 O.co2    1 ZINC000003941829   -1.1600
14     C14    -2.7726   -2.2293    3.9866 C.3      1 ZINC000003941829    0.1600
15     H15    -1.9521   -1.6925    4.4627 H        1 ZINC000003941829    0.0900
16     C16    -2.5271   -3.7357    4.0946 C.3      1 ZINC000003941829   -0.1000
17     C17    -2.3234   -4.1090    5.5404 C.ar     1 ZINC000003941829   -0.0400
18     C18    -1.0536   -4.0915    6.0865 C.ar     1 ZINC000003941829   -0.1100
19     C19    -0.8668   -4.4340    7.4126 C.ar     1 ZINC000003941829   -0.1200
20     C20    -1.9498   -4.7935    8.1928 C.ar     1 ZINC000003941829   -0.1300
21     C21    -3.2197   -4.8101    7.6470 C.ar     1 ZINC000003941829   -0.1200
22     C22    -3.4071   -4.4635    6.3220 C.ar     1 ZINC000003941829   -0.1100
23     N23    -4.0311   -1.8904    4.6554 N.am     1 ZINC000003941829   -0.6800
24     C24    -4.0492   -1.6673    5.9845 C.2      1 ZINC000003941829    0.6400
25     O25    -3.0216   -1.7472    6.6280 O.2      1 ZINC000003941829   -0.5800
26     O26    -5.2058   -1.3558    6.5991 O.3      1 ZINC000003941829   -0.3500
27     C27    -5.1505   -1.1288    8.0322 C.3      1 ZINC000003941829    0.0800
28     H28    -4.1735   -0.7440    8.3248 H        1 ZINC000003941829    0.1000
29     C29    -6.2818   -0.1652    8.4833 C.3      1 ZINC000003941829   -0.1600
30     C30    -6.4960   -0.6277    9.9466 C.3      1 ZINC000003941829    0.0500
31     O31    -6.3144   -2.0524    9.9201 O.3      1 ZINC000003941829   -0.3800
32     C32    -5.4862   -2.4214    8.8067 C.3      1 ZINC000003941829    0.0400
33     S33    -1.8587   -2.6244   -0.7803 S.o2     1 ZINC000003941829    2.6900
34     O34    -2.5622   -3.7209   -0.2128 O.2      1 ZINC000003941829   -0.9200
35     O35    -2.3736   -1.8386   -1.8464 O.2      1 ZINC000003941829   -0.9300
36     C36    -0.3104   -3.2588   -1.3325 C.ar     1 ZINC000003941829   -0.7300
37     C37     0.3889   -2.6015   -2.3281 C.ar     1 ZINC000003941829    0.0200
38     C38     1.6027   -3.0961   -2.7632 C.ar     1 ZINC000003941829   -0.2200
39     C39     2.1210   -4.2551   -2.1997 C.ar     1 ZINC000003941829    0.2500
40     N40     3.3485   -4.7578   -2.6371 N.pl3    1 ZINC000003941829   -0.8800
41     C41     1.4159   -4.9129   -1.1998 C.ar     1 ZINC000003941829   -0.2200
42     C42     0.2053   -4.4098   -0.7654 C.ar     1 ZINC000003941829    0.0300
43     H43     1.5010    1.7151   -0.5043 H        1 ZINC000003941829    0.0500
44     H44    -0.0618    1.7137   -1.3563 H        1 ZINC000003941829    0.0600
45     H45     0.0215    2.2154    0.3495 H        1 ZINC000003941829    0.0600
46     H46     0.6028   -0.5868   -0.7121 H        1 ZINC000003941829    0.0700
47     H47     0.8385   -1.2177    1.6224 H        1 ZINC000003941829    0.0600
48     H48     1.9270    0.1566    1.3147 H        1 ZINC000003941829    0.0400
49     H49     0.3814    0.4169    2.1584 H        1 ZINC000003941829    0.0600
50     H50    -1.6983    0.4433    1.0053 H        1 ZINC000003941829    0.0800
51     H51    -1.8149    0.1189   -0.7410 H        1 ZINC000003941829    0.1000
52     H52    -1.2788   -3.1362    1.8404 H        1 ZINC000003941829    0.0800
53     H53    -0.7243   -1.5377    2.3933 H        1 ZINC000003941829    0.0800
54     H54    -3.3884   -4.2735    3.6984 H        1 ZINC000003941829    0.1000
55     H55    -1.6383   -4.0009    3.5222 H        1 ZINC000003941829    0.0800
56     H56    -0.2075   -3.8106    5.4769 H        1 ZINC000003941829    0.1100
57     H57     0.1254   -4.4210    7.8391 H        1 ZINC000003941829    0.1100
58     H58    -1.8037   -5.0617    9.2287 H        1 ZINC000003941829    0.1100
59     H59    -4.0658   -5.0914    8.2565 H        1 ZINC000003941829    0.1100
60     H60    -4.3993   -4.4765    5.8955 H        1 ZINC000003941829    0.1100
61     H61    -4.8515   -1.8266    4.1418 H        1 ZINC000003941829    0.4300
62     H62    -5.9525    0.8731    8.4437 H        1 ZINC000003941829    0.0900
63     H63    -7.1835   -0.3124    7.8888 H        1 ZINC000003941829    0.1000
64     H64    -5.7582   -0.1643   10.6016 H        1 ZINC000003941829    0.0600
65     H65    -7.5049   -0.3810   10.2775 H        1 ZINC000003941829    0.0900
66     H66    -6.0263   -3.1094    8.1561 H        1 ZINC000003941829    0.0800
67     H67    -4.5713   -2.8921    9.1664 H        1 ZINC000003941829    0.0800
68     H68    -0.0148   -1.7006   -2.7660 H        1 ZINC000003941829    0.1400
69     H69     2.1482   -2.5824   -3.5411 H        1 ZINC000003941829    0.1200
70     H70     3.8401   -4.2974   -3.3352 H        1 ZINC000003941829    0.4000
71     H71     3.7094   -5.5672   -2.2428 H        1 ZINC000003941829    0.4000
72     H72     1.8158   -5.8145   -0.7598 H        1 ZINC000003941829    0.1200
73     H73    -0.3434   -4.9207    0.0120 H        1 ZINC000003941829    0.1400
@<TRIPOS>BOND
1     1     2     1
2     1     43    1
3     1     44    1
4     1     45    1
5     2     3     1
6     2     4     1
7     2     46    1
8     3     47    1
9     3     48    1
10    3     49    1
11    4     5     1
12    4     50    1
13    4     51    1
14    5     6     1
15    5     33    am
16    6     7     1
17    6     52    1
18    6     53    1
19    7     8     1
20    7     9     1
21    7     14    1
22    9     10    1
23    10    11    ar
24    10    12    ar
25    10    13    ar
26    14    15    1
27    14    16    1
28    14    23    1
29    16    17    1
30    16    54    1
31    16    55    1
32    17    22    ar
33    17    18    ar
34    18    19    ar
35    18    56    1
36    19    20    ar
37    19    57    1
38    20    21    ar
39    20    58    1
40    21    22    ar
41    21    59    1
42    22    60    1
43    23    24    am
44    23    61    1
45    24    25    2
46    24    26    1
47    26    27    1
48    27    28    1
49    27    32    1
50    27    29    1
51    29    30    1
52    29    62    1
53    29    63    1
54    30    31    1
55    30    64    1
56    30    65    1
57    31    32    1
58    32    66    1
59    32    67    1
60    33    34    2
61    33    35    2
62    33    36    1
63    36    42    ar
64    36    37    ar
65    37    38    ar
66    37    68    1
67    38    39    ar
68    38    69    1
69    39    40    1
70    39    41    ar
71    40    70    1
72    40    71    1
73    41    42    ar
74    41    72    1
75    42    73    1
@<TRIPOS>SUBSTRUCTURE
1   ZINC000003941829 1     RESIDUE    1   A     ZIN   1
