REMARK  15 active torsions:
REMARK  status: ('A' for Active; 'I' for Inactive)
REMARK    1  A    between atoms: C2_2  and  C4_4 
REMARK    2  A    between atoms: C4_4  and  N5_5 
REMARK    3  A    between atoms: N5_5  and  C6_6 
REMARK       I    between atoms: N5_5  and  C41_38 
REMARK    4  A    between atoms: C6_6  and  C7_7 
REMARK    5  A    between atoms: C7_7  and  O9_8 
REMARK    6  A    between atoms: C7_7  and  C10_9 
REMARK    7  A    between atoms: C10_9  and  C12_10 
REMARK    8  A    between atoms: C10_9  and  N19_17 
REMARK    9  A    between atoms: C12_10  and  C13_11 
REMARK       I    between atoms: N19_17  and  C20_18 
REMARK   10  A    between atoms: C20_18  and  C22_20 
REMARK   11  A    between atoms: C22_20  and  C24_21 
REMARK   12  A    between atoms: C22_20  and  N28_25 
REMARK   13  A    between atoms: C24_21  and  C25_22 
REMARK       I    between atoms: C25_22  and  N26_23 
REMARK       I    between atoms: N28_25  and  C29_26 
REMARK   14  A    between atoms: C29_26  and  C31_28 
REMARK       I    between atoms: C41_38  and  N43_40 
REMARK   15  A    between atoms: N43_40  and  C44_41 
ROOT
ATOM      1  C10 ZIN A   1      -3.543  -2.808  -3.163  0.00  0.00     0.230 C 
ENDROOT
BRANCH   1   2
ATOM      2  C7  ZIN A   1      -3.814  -1.956  -1.921  0.00  0.00     0.190 C 
BRANCH   2   3
ATOM      3  C6  ZIN A   1      -2.795  -0.817  -1.852  0.00  0.00     0.280 C 
BRANCH   3   4
ATOM      4  N5  ZIN A   1      -2.979  -0.073  -0.603  0.00  0.00    -0.620 N 
ATOM      5  C41 ZIN A   1      -3.820   0.979  -0.563  0.00  0.00     0.720 C 
ATOM      6  O42 ZIN A   1      -4.427   1.311  -1.563  0.00  0.00    -0.580 OA
ATOM      7  N43 ZIN A   1      -3.989   1.664   0.585  0.00  0.00    -0.740 N 
ATOM      8  H79 ZIN A   1      -3.505   1.399   1.383  0.00  0.00     0.390 HD
BRANCH   4   9
ATOM      9  C4  ZIN A   1      -2.248  -0.472   0.602  0.00  0.00     0.260 C 
BRANCH   9  10
ATOM     10  C2  ZIN A   1      -0.910   0.269   0.656  0.00  0.00    -0.040 C 
ATOM     11  C1  ZIN A   1      -1.165   1.769   0.816  0.00  0.00     0.020 C 
ATOM     12  C3  ZIN A   1      -0.094  -0.239   1.846  0.00  0.00     0.030 C 
ENDBRANCH   9  10
ENDBRANCH   4   9
BRANCH   7  13
ATOM     13  C44 ZIN A   1      -4.904   2.807   0.629  0.00  0.00     0.190 C 
ATOM     14  C45 ZIN A   1      -6.316   2.345   0.263  0.00  0.00     0.030 C 
ATOM     15  C46 ZIN A   1      -4.911   3.401   2.039  0.00  0.00     0.030 C 
ATOM     16  C47 ZIN A   1      -4.440   3.870  -0.370  0.00  0.00     0.030 C 
ENDBRANCH   7  13
ENDBRANCH   3   4
ENDBRANCH   2   3
BRANCH   2  17
ATOM     17  O9  ZIN A   1      -5.133  -1.411  -1.996  0.00  0.00    -0.550 OA
ATOM     18  H59 ZIN A   1      -5.283  -0.848  -2.767  0.00  0.00     0.380 HD
ENDBRANCH   2  17
ENDBRANCH   1   2
BRANCH   1  19
ATOM     19  C12 ZIN A   1      -3.786  -1.970  -4.419  0.00  0.00     0.060 C 
BRANCH  19  20
ATOM     20  C13 ZIN A   1      -3.402  -2.769  -5.638  0.00  0.00    -0.060 A 
ATOM     21  C18 ZIN A   1      -4.341  -3.565  -6.267  0.00  0.00     0.000 A 
ATOM     22  C17 ZIN A   1      -3.990  -4.294  -7.388  0.00  0.00     0.000 A 
ATOM     23  C16 ZIN A   1      -2.697  -4.235  -7.873  0.00  0.00    -0.010 A 
ATOM     24  C15 ZIN A   1      -1.756  -3.443  -7.241  0.00  0.00     0.010 A 
ATOM     25  C14 ZIN A   1      -2.109  -2.710  -6.123  0.00  0.00     0.000 A 
ENDBRANCH  19  20
ENDBRANCH   1  19
BRANCH   1  26
ATOM     26  N19 ZIN A   1      -4.441  -3.966  -3.166  0.00  0.00    -0.720 N 
ATOM     27  C20 ZIN A   1      -4.091  -5.088  -3.825  0.00  0.00     0.520 C 
ATOM     28  O21 ZIN A   1      -3.033  -5.139  -4.416  0.00  0.00    -0.490 OA
ATOM     29  H67 ZIN A   1      -5.287  -3.925  -2.694  0.00  0.00     0.400 HD
BRANCH  27  30
ATOM     30  C22 ZIN A   1      -5.014  -6.279  -3.829  0.00  0.00     0.260 C 
BRANCH  30  31
ATOM     31  C24 ZIN A   1      -5.244  -6.751  -2.392  0.00  0.00     0.060 C 
BRANCH  31  32
ATOM     32  C25 ZIN A   1      -3.937  -7.213  -1.801  0.00  0.00     0.510 C 
ATOM     33  N26 ZIN A   1      -3.909  -7.753  -0.566  0.00  0.00    -0.860 N 
ATOM     34  H70 ZIN A   1      -4.731  -7.844  -0.058  0.00  0.00     0.400 HD
ATOM     35  H71 ZIN A   1      -3.068  -8.051  -0.185  0.00  0.00     0.400 HD
ATOM     36  O27 ZIN A   1      -2.910  -7.100  -2.436  0.00  0.00    -0.520 OA
ENDBRANCH  31  32
ENDBRANCH  30  31
BRANCH  30  37
ATOM     37  N28 ZIN A   1      -4.411  -7.362  -4.609  0.00  0.00    -0.680 N 
ATOM     38  C29 ZIN A   1      -5.196  -8.268  -5.225  0.00  0.00     0.570 C 
ATOM     39  O30 ZIN A   1      -6.400  -8.239  -5.062  0.00  0.00    -0.540 OA
ATOM     40  H72 ZIN A   1      -3.446  -7.429  -4.681  0.00  0.00     0.430 HD
BRANCH  38  41
ATOM     41  C31 ZIN A   1      -4.592  -9.298  -6.103  0.00  0.00     0.110 A 
ATOM     42  N40 ZIN A   1      -3.283  -9.316  -6.270  0.00  0.00    -0.430 NA
ATOM     43  C39 ZIN A   1      -2.696 -10.226  -7.046  0.00  0.00     0.120 A 
ATOM     44  C34 ZIN A   1      -3.483 -11.196  -7.720  0.00  0.00    -0.090 A 
ATOM     45  C38 ZIN A   1      -1.298 -10.242  -7.215  0.00  0.00     0.060 A 
ATOM     46  C33 ZIN A   1      -4.880 -11.182  -7.553  0.00  0.00     0.090 A 
ATOM     47  C35 ZIN A   1      -2.857 -12.148  -8.540  0.00  0.00     0.030 A 
ATOM     48  C32 ZIN A   1      -5.425 -10.229  -6.741  0.00  0.00     0.020 A 
ATOM     49  C36 ZIN A   1      -1.503 -12.131  -8.679  0.00  0.00     0.030 A 
ATOM     50  C37 ZIN A   1      -0.727 -11.180  -8.017  0.00  0.00     0.030 A 
ENDBRANCH  38  41
ENDBRANCH  30  37
ENDBRANCH  27  30
ENDBRANCH   1  26
TORSDOF 15
