MODEL 1
REMARK VINA RESULT:      -6.0      0.000      0.000
REMARK  15 active torsions:
REMARK  status: ('A' for Active; 'I' for Inactive)
REMARK    1  A    between atoms: C2_2  and  C4_4 
REMARK    2  A    between atoms: C4_4  and  N5_5 
REMARK    3  A    between atoms: N5_5  and  C6_6 
REMARK    4  A    between atoms: N5_5  and  S29_26 
REMARK    5  A    between atoms: C6_6  and  C7_7 
REMARK    6  A    between atoms: C7_7  and  O9_8 
REMARK    7  A    between atoms: C7_7  and  C10_9 
REMARK    8  A    between atoms: C10_9  and  C12_10 
REMARK    9  A    between atoms: C10_9  and  N19_17 
REMARK   10  A    between atoms: C12_10  and  C13_11 
REMARK   11  A    between atoms: N19_17  and  C20_18 
REMARK   12  A    between atoms: C20_18  and  O22_20 
REMARK   13  A    between atoms: O22_20  and  C23_21 
REMARK   14  A    between atoms: S29_26  and  C32_29 
REMARK   15  A    between atoms: C35_32  and  N36_33 
ROOT
ATOM      1  C7  ZIN A   1       8.398  14.027 -18.260  0.00  0.00     0.190 C 
ENDROOT
BRANCH   1   2
ATOM      2  C6  ZIN A   1       7.670  15.068 -17.405  0.00  0.00     0.280 C 
BRANCH   2   3
ATOM      3  N5  ZIN A   1       7.888  14.771 -15.987  0.00  0.00    -0.990 N 
BRANCH   3   4
ATOM      4  C4  ZIN A   1       7.619  13.428 -15.470  0.00  0.00     0.310 C 
BRANCH   4   5
ATOM      5  C2  ZIN A   1       6.107  13.193 -15.423  0.00  0.00    -0.050 C 
ATOM      6  C1  ZIN A   1       5.766  11.913 -16.188  0.00  0.00     0.030 C 
ATOM      7  C3  ZIN A   1       5.659  13.051 -13.967  0.00  0.00     0.020 C 
ENDBRANCH   4   5
ENDBRANCH   3   4
BRANCH   3   8
ATOM      8  S29 ZIN A   1       8.439  15.956 -14.969  0.00  0.00     2.700 S 
ATOM      9  O30 ZIN A   1       7.689  17.125 -15.270  0.00  0.00    -0.950 OA
ATOM     10  O31 ZIN A   1       8.492  15.377 -13.672  0.00  0.00    -0.960 OA
BRANCH   8  11
ATOM     11  C32 ZIN A   1      10.105  16.303 -15.426  0.00  0.00    -0.740 A 
ATOM     12  C38 ZIN A   1      10.590  17.595 -15.335  0.00  0.00     0.170 A 
ATOM     13  C37 ZIN A   1      11.897  17.870 -15.688  0.00  0.00    -0.090 A 
ATOM     14  C35 ZIN A   1      12.721  16.850 -16.144  0.00  0.00     0.270 A 
ATOM     15  C34 ZIN A   1      12.229  15.554 -16.239  0.00  0.00    -0.090 A 
ATOM     16  C33 ZIN A   1      10.923  15.285 -15.880  0.00  0.00     0.170 A 
BRANCH  14  17
ATOM     17  N36 ZIN A   1      14.042  17.126 -16.507  0.00  0.00    -0.870 N 
ATOM     18  H67 ZIN A   1      14.540  16.490 -17.043  0.00  0.00     0.400 HD
ATOM     19  H68 ZIN A   1      14.459  17.954 -16.223  0.00  0.00     0.400 HD
ENDBRANCH  14  17
ENDBRANCH   8  11
ENDBRANCH   3   8
ENDBRANCH   2   3
ENDBRANCH   1   2
BRANCH   1  20
ATOM     20  O9  ZIN A   1       7.441  13.273 -19.009  0.00  0.00    -0.550 OA
ATOM     21  H50 ZIN A   1       7.340  12.359 -18.710  0.00  0.00     0.390 HD
ENDBRANCH   1  20
BRANCH   1  22
ATOM     22  C10 ZIN A   1       9.354  14.736 -19.220  0.00  0.00     0.240 C 
BRANCH  22  23
ATOM     23  C12 ZIN A   1       8.879  16.173 -19.446  0.00  0.00     0.060 C 
BRANCH  23  24
ATOM     24  C13 ZIN A   1      10.060  17.107 -19.386  0.00  0.00    -0.060 A 
ATOM     25  C18 ZIN A   1       9.883  18.422 -18.999  0.00  0.00     0.000 A 
ATOM     26  C17 ZIN A   1      10.969  19.277 -18.939  0.00  0.00     0.000 A 
ATOM     27  C16 ZIN A   1      12.228  18.819 -19.276  0.00  0.00     0.000 A 
ATOM     28  C15 ZIN A   1      12.405  17.505 -19.668  0.00  0.00     0.010 A 
ATOM     29  C14 ZIN A   1      11.321  16.649 -19.724  0.00  0.00     0.000 A 
ENDBRANCH  23  24
ENDBRANCH  22  23
BRANCH  22  30
ATOM     30  N19 ZIN A   1       9.378  14.024 -20.500  0.00  0.00    -0.700 N 
ATOM     31  H58 ZIN A   1       8.649  14.135 -21.131  0.00  0.00     0.410 HD
BRANCH  30  32
ATOM     32  C20 ZIN A   1      10.411  13.212 -20.802  0.00  0.00     0.650 C 
ATOM     33  O21 ZIN A   1      10.835  13.166 -21.939  0.00  0.00    -0.550 OA
BRANCH  32  34
ATOM     34  O22 ZIN A   1      10.973  12.454 -19.843  0.00  0.00    -0.360 OA
BRANCH  34  35
ATOM     35  C23 ZIN A   1      12.384  12.141 -19.991  0.00  0.00     0.190 C 
ATOM     36  C28 ZIN A   1      12.688  10.717 -19.478  0.00  0.00     0.200 C 
ATOM     37  O27 ZIN A   1      13.934  10.773 -18.767  0.00  0.00    -0.380 OA
ATOM     38  C26 ZIN A   1      14.472  12.104 -18.822  0.00  0.00     0.220 C 
ATOM     39  C25 ZIN A   1      13.248  13.026 -19.052  0.00  0.00     0.030 C 
ENDBRANCH  34  35
ENDBRANCH  32  34
ENDBRANCH  30  32
ENDBRANCH  22  30
ENDBRANCH   1  22
TORSDOF 14
ENDMDL
MODEL 2
REMARK VINA RESULT:      -6.0      7.047     11.747
REMARK  15 active torsions:
REMARK  status: ('A' for Active; 'I' for Inactive)
REMARK    1  A    between atoms: C2_2  and  C4_4 
REMARK    2  A    between atoms: C4_4  and  N5_5 
REMARK    3  A    between atoms: N5_5  and  C6_6 
REMARK    4  A    between atoms: N5_5  and  S29_26 
REMARK    5  A    between atoms: C6_6  and  C7_7 
REMARK    6  A    between atoms: C7_7  and  O9_8 
REMARK    7  A    between atoms: C7_7  and  C10_9 
REMARK    8  A    between atoms: C10_9  and  C12_10 
REMARK    9  A    between atoms: C10_9  and  N19_17 
REMARK   10  A    between atoms: C12_10  and  C13_11 
REMARK   11  A    between atoms: N19_17  and  C20_18 
REMARK   12  A    between atoms: C20_18  and  O22_20 
REMARK   13  A    between atoms: O22_20  and  C23_21 
REMARK   14  A    between atoms: S29_26  and  C32_29 
REMARK   15  A    between atoms: C35_32  and  N36_33 
ROOT
ATOM      1  C7  ZIN A   1       8.528  14.005  -8.143  0.00  0.00     0.190 C 
ENDROOT
BRANCH   1   2
ATOM      2  C6  ZIN A   1       7.481  14.827  -8.899  0.00  0.00     0.280 C 
BRANCH   2   3
ATOM      3  N5  ZIN A   1       7.798  14.822 -10.330  0.00  0.00    -0.990 N 
BRANCH   3   4
ATOM      4  C4  ZIN A   1       9.109  15.283 -10.792  0.00  0.00     0.310 C 
BRANCH   4   5
ATOM      5  C2  ZIN A   1       9.129  16.813 -10.824  0.00  0.00    -0.050 C 
ATOM      6  C1  ZIN A   1      10.167  17.331  -9.827  0.00  0.00     0.030 C 
ATOM      7  C3  ZIN A   1       9.494  17.288 -12.232  0.00  0.00     0.020 C 
ENDBRANCH   4   5
ENDBRANCH   3   4
BRANCH   3   8
ATOM      8  S29 ZIN A   1       6.673  14.294 -11.424  0.00  0.00     2.700 S 
ATOM      9  O30 ZIN A   1       5.478  15.014 -11.151  0.00  0.00    -0.950 OA
ATOM     10  O31 ZIN A   1       7.313  14.303 -12.693  0.00  0.00    -0.960 OA
BRANCH   8  11
ATOM     11  C32 ZIN A   1       6.333  12.606 -11.051  0.00  0.00    -0.740 A 
ATOM     12  C38 ZIN A   1       5.024  12.166 -10.978  0.00  0.00     0.170 A 
ATOM     13  C37 ZIN A   1       4.754  10.842 -10.690  0.00  0.00    -0.090 A 
ATOM     14  C35 ZIN A   1       5.798   9.955 -10.462  0.00  0.00     0.270 A 
ATOM     15  C34 ZIN A   1       7.111  10.403 -10.532  0.00  0.00    -0.090 A 
ATOM     16  C33 ZIN A   1       7.375  11.726 -10.825  0.00  0.00     0.170 A 
BRANCH  14  17
ATOM     17  N36 ZIN A   1       5.528   8.617 -10.166  0.00  0.00    -0.870 N 
ATOM     18  H67 ZIN A   1       5.153   8.036 -10.846  0.00  0.00     0.400 HD
ATOM     19  H68 ZIN A   1       5.717   8.270  -9.281  0.00  0.00     0.400 HD
ENDBRANCH  14  17
ENDBRANCH   8  11
ENDBRANCH   3   8
ENDBRANCH   2   3
ENDBRANCH   1   2
BRANCH   1  20
ATOM     20  O9  ZIN A   1       9.398  14.884  -7.427  0.00  0.00    -0.550 OA
ATOM     21  H50 ZIN A   1       9.123  15.053  -6.515  0.00  0.00     0.390 HD
ENDBRANCH   1  20
BRANCH   1  22
ATOM     22  C10 ZIN A   1       7.826  13.068  -7.160  0.00  0.00     0.240 C 
BRANCH  22  23
ATOM     23  C12 ZIN A   1       6.379  13.527  -6.962  0.00  0.00     0.060 C 
BRANCH  23  24
ATOM     24  C13 ZIN A   1       5.460  12.335  -7.036  0.00  0.00    -0.060 A 
ATOM     25  C18 ZIN A   1       4.110  12.517  -7.268  0.00  0.00     0.000 A 
ATOM     26  C17 ZIN A   1       3.268  11.422  -7.342  0.00  0.00     0.000 A 
ATOM     27  C16 ZIN A   1       3.775  10.148  -7.174  0.00  0.00     0.000 A 
ATOM     28  C15 ZIN A   1       5.125   9.966  -6.936  0.00  0.00     0.010 A 
ATOM     29  C14 ZIN A   1       5.967  11.059  -6.867  0.00  0.00     0.000 A 
ENDBRANCH  23  24
ENDBRANCH  22  23
BRANCH  22  30
ATOM     30  N19 ZIN A   1       8.526  13.096  -5.874  0.00  0.00    -0.700 N 
ATOM     31  H58 ZIN A   1       8.411  13.850  -5.274  0.00  0.00     0.410 HD
BRANCH  30  32
ATOM     32  C20 ZIN A   1       9.333  12.074  -5.523  0.00  0.00     0.650 C 
ATOM     33  O21 ZIN A   1       9.314  11.648  -4.386  0.00  0.00    -0.550 OA
BRANCH  32  34
ATOM     34  O22 ZIN A   1      10.160  11.527  -6.434  0.00  0.00    -0.360 OA
BRANCH  34  35
ATOM     35  C23 ZIN A   1      10.452  10.111  -6.293  0.00  0.00     0.190 C 
ATOM     36  C28 ZIN A   1      11.788   9.755  -6.979  0.00  0.00     0.200 C 
ATOM     37  O27 ZIN A   1      11.606   8.497  -7.646  0.00  0.00    -0.380 OA
ATOM     38  C26 ZIN A   1      10.280   7.999  -7.405  0.00  0.00     0.220 C 
ATOM     39  C25 ZIN A   1       9.429   9.255  -7.088  0.00  0.00     0.030 C 
ENDBRANCH  34  35
ENDBRANCH  32  34
ENDBRANCH  30  32
ENDBRANCH  22  30
ENDBRANCH   1  22
TORSDOF 14
ENDMDL
MODEL 3
REMARK VINA RESULT:      -5.6      3.495      6.760
REMARK  15 active torsions:
REMARK  status: ('A' for Active; 'I' for Inactive)
REMARK    1  A    between atoms: C2_2  and  C4_4 
REMARK    2  A    between atoms: C4_4  and  N5_5 
REMARK    3  A    between atoms: N5_5  and  C6_6 
REMARK    4  A    between atoms: N5_5  and  S29_26 
REMARK    5  A    between atoms: C6_6  and  C7_7 
REMARK    6  A    between atoms: C7_7  and  O9_8 
REMARK    7  A    between atoms: C7_7  and  C10_9 
REMARK    8  A    between atoms: C10_9  and  C12_10 
REMARK    9  A    between atoms: C10_9  and  N19_17 
REMARK   10  A    between atoms: C12_10  and  C13_11 
REMARK   11  A    between atoms: N19_17  and  C20_18 
REMARK   12  A    between atoms: C20_18  and  O22_20 
REMARK   13  A    between atoms: O22_20  and  C23_21 
REMARK   14  A    between atoms: S29_26  and  C32_29 
REMARK   15  A    between atoms: C35_32  and  N36_33 
ROOT
ATOM      1  C7  ZIN A   1      12.261  13.274 -15.039  0.00  0.00     0.190 C 
ENDROOT
BRANCH   1   2
ATOM      2  C6  ZIN A   1      13.741  13.011 -15.328  0.00  0.00     0.280 C 
BRANCH   2   3
ATOM      3  N5  ZIN A   1      14.001  11.570 -15.267  0.00  0.00    -0.990 N 
BRANCH   3   4
ATOM      4  C4  ZIN A   1      13.539  10.791 -14.115  0.00  0.00     0.310 C 
BRANCH   4   5
ATOM      5  C2  ZIN A   1      14.542  10.932 -12.968  0.00  0.00    -0.050 C 
ATOM      6  C1  ZIN A   1      13.841  11.526 -11.746  0.00  0.00     0.030 C 
ATOM      7  C3  ZIN A   1      15.107   9.555 -12.613  0.00  0.00     0.020 C 
ENDBRANCH   4   5
ENDBRANCH   3   4
BRANCH   3   8
ATOM      8  S29 ZIN A   1      14.814  10.823 -16.500  0.00  0.00     2.700 S 
ATOM      9  O30 ZIN A   1      16.048  11.514 -16.644  0.00  0.00    -0.950 OA
ATOM     10  O31 ZIN A   1      14.730   9.427 -16.248  0.00  0.00    -0.960 OA
BRANCH   8  11
ATOM     11  C32 ZIN A   1      13.904  11.116 -17.979  0.00  0.00    -0.740 A 
ATOM     12  C38 ZIN A   1      12.826  10.309 -18.297  0.00  0.00     0.170 A 
ATOM     13  C37 ZIN A   1      12.107  10.539 -19.454  0.00  0.00    -0.090 A 
ATOM     14  C35 ZIN A   1      12.474  11.574 -20.304  0.00  0.00     0.270 A 
ATOM     15  C34 ZIN A   1      13.560  12.378 -19.984  0.00  0.00    -0.090 A 
ATOM     16  C33 ZIN A   1      14.272  12.147 -18.824  0.00  0.00     0.170 A 
BRANCH  14  17
ATOM     17  N36 ZIN A   1      11.753  11.805 -21.477  0.00  0.00    -0.870 N 
ATOM     18  H67 ZIN A   1      11.695  12.703 -21.842  0.00  0.00     0.400 HD
ATOM     19  H68 ZIN A   1      11.311  11.069 -21.928  0.00  0.00     0.400 HD
ENDBRANCH  14  17
ENDBRANCH   8  11
ENDBRANCH   3   8
ENDBRANCH   2   3
ENDBRANCH   1   2
BRANCH   1  20
ATOM     20  O9  ZIN A   1      12.131  13.912 -13.766  0.00  0.00    -0.550 OA
ATOM     21  H50 ZIN A   1      11.218  14.115 -13.519  0.00  0.00     0.390 HD
ENDBRANCH   1  20
BRANCH   1  22
ATOM     22  C10 ZIN A   1      11.684  14.181 -16.126  0.00  0.00     0.240 C 
BRANCH  22  23
ATOM     23  C12 ZIN A   1      10.981  13.326 -17.183  0.00  0.00     0.060 C 
BRANCH  23  24
ATOM     24  C13 ZIN A   1      10.032  14.189 -17.975  0.00  0.00    -0.060 A 
ATOM     25  C18 ZIN A   1       9.061  14.926 -17.325  0.00  0.00     0.000 A 
ATOM     26  C17 ZIN A   1       8.194  15.722 -18.052  0.00  0.00     0.000 A 
ATOM     27  C16 ZIN A   1       8.293  15.772 -19.429  0.00  0.00     0.000 A 
ATOM     28  C15 ZIN A   1       9.261  15.030 -20.081  0.00  0.00     0.010 A 
ATOM     29  C14 ZIN A   1      10.130  14.238 -19.354  0.00  0.00     0.000 A 
ENDBRANCH  23  24
ENDBRANCH  22  23
BRANCH  22  30
ATOM     30  N19 ZIN A   1      12.768  14.941 -16.755  0.00  0.00    -0.700 N 
ATOM     31  H58 ZIN A   1      13.449  14.479 -17.269  0.00  0.00     0.410 HD
BRANCH  30  32
ATOM     32  C20 ZIN A   1      12.820  16.281 -16.618  0.00  0.00     0.650 C 
ATOM     33  O21 ZIN A   1      13.838  16.811 -16.222  0.00  0.00    -0.550 OA
BRANCH  32  34
ATOM     34  O22 ZIN A   1      11.743  17.030 -16.920  0.00  0.00    -0.360 OA
BRANCH  34  35
ATOM     35  C23 ZIN A   1      11.878  17.964 -18.024  0.00  0.00     0.190 C 
ATOM     36  C28 ZIN A   1      10.515  18.593 -18.382  0.00  0.00     0.200 C 
ATOM     37  O27 ZIN A   1      10.436  18.661 -19.814  0.00  0.00    -0.380 OA
ATOM     38  C26 ZIN A   1      11.654  18.171 -20.398  0.00  0.00     0.220 C 
ATOM     39  C25 ZIN A   1      12.258  17.220 -19.333  0.00  0.00     0.030 C 
ENDBRANCH  34  35
ENDBRANCH  32  34
ENDBRANCH  30  32
ENDBRANCH  22  30
ENDBRANCH   1  22
TORSDOF 14
ENDMDL
MODEL 4
REMARK VINA RESULT:      -5.6      1.982      3.782
REMARK  15 active torsions:
REMARK  status: ('A' for Active; 'I' for Inactive)
REMARK    1  A    between atoms: C2_2  and  C4_4 
REMARK    2  A    between atoms: C4_4  and  N5_5 
REMARK    3  A    between atoms: N5_5  and  C6_6 
REMARK    4  A    between atoms: N5_5  and  S29_26 
REMARK    5  A    between atoms: C6_6  and  C7_7 
REMARK    6  A    between atoms: C7_7  and  O9_8 
REMARK    7  A    between atoms: C7_7  and  C10_9 
REMARK    8  A    between atoms: C10_9  and  C12_10 
REMARK    9  A    between atoms: C10_9  and  N19_17 
REMARK   10  A    between atoms: C12_10  and  C13_11 
REMARK   11  A    between atoms: N19_17  and  C20_18 
REMARK   12  A    between atoms: C20_18  and  O22_20 
REMARK   13  A    between atoms: O22_20  and  C23_21 
REMARK   14  A    between atoms: S29_26  and  C32_29 
REMARK   15  A    between atoms: C35_32  and  N36_33 
ROOT
ATOM      1  C7  ZIN A   1       8.344  13.766 -18.204  0.00  0.00     0.190 C 
ENDROOT
BRANCH   1   2
ATOM      2  C6  ZIN A   1       7.579  14.934 -17.577  0.00  0.00     0.280 C 
BRANCH   2   3
ATOM      3  N5  ZIN A   1       7.580  14.791 -16.118  0.00  0.00    -0.990 N 
BRANCH   3   4
ATOM      4  C4  ZIN A   1       8.332  15.736 -15.290  0.00  0.00     0.310 C 
BRANCH   4   5
ATOM      5  C2  ZIN A   1       9.562  16.222 -16.060  0.00  0.00    -0.050 C 
ATOM      6  C1  ZIN A   1       9.855  17.677 -15.688  0.00  0.00     0.030 C 
ATOM      7  C3  ZIN A   1      10.767  15.351 -15.697  0.00  0.00     0.020 C 
ENDBRANCH   4   5
ENDBRANCH   3   4
BRANCH   3   8
ATOM      8  S29 ZIN A   1       6.731  13.561 -15.408  0.00  0.00     2.700 S 
ATOM      9  O30 ZIN A   1       6.410  14.000 -14.094  0.00  0.00    -0.950 OA
ATOM     10  O31 ZIN A   1       5.750  13.153 -16.352  0.00  0.00    -0.960 OA
BRANCH   8  11
ATOM     11  C32 ZIN A   1       7.836  12.201 -15.222  0.00  0.00    -0.740 A 
ATOM     12  C38 ZIN A   1       8.975  12.340 -14.449  0.00  0.00     0.170 A 
ATOM     13  C37 ZIN A   1       9.842  11.275 -14.297  0.00  0.00    -0.090 A 
ATOM     14  C35 ZIN A   1       9.574  10.068 -14.930  0.00  0.00     0.270 A 
ATOM     15  C34 ZIN A   1       8.432   9.935 -15.709  0.00  0.00    -0.090 A 
ATOM     16  C33 ZIN A   1       7.567  11.001 -15.853  0.00  0.00     0.170 A 
BRANCH  14  17
ATOM     17  N36 ZIN A   1      10.451   8.991 -14.782  0.00  0.00    -0.870 N 
ATOM     18  H67 ZIN A   1      11.262   9.094 -14.260  0.00  0.00     0.400 HD
ATOM     19  H68 ZIN A   1      10.249   8.140 -15.201  0.00  0.00     0.400 HD
ENDBRANCH  14  17
ENDBRANCH   8  11
ENDBRANCH   3   8
ENDBRANCH   2   3
ENDBRANCH   1   2
BRANCH   1  20
ATOM     20  O9  ZIN A   1       7.427  12.912 -18.893  0.00  0.00    -0.550 OA
ATOM     21  H50 ZIN A   1       6.596  12.765 -18.421  0.00  0.00     0.390 HD
ENDBRANCH   1  20
BRANCH   1  22
ATOM     22  C10 ZIN A   1       9.379  14.307 -19.191  0.00  0.00     0.240 C 
BRANCH  22  23
ATOM     23  C12 ZIN A   1       8.935  15.682 -19.695  0.00  0.00     0.060 C 
BRANCH  23  24
ATOM     24  C13 ZIN A   1      10.049  16.676 -19.487  0.00  0.00    -0.060 A 
ATOM     25  C18 ZIN A   1       9.766  18.027 -19.425  0.00  0.00     0.000 A 
ATOM     26  C17 ZIN A   1      10.788  18.938 -19.230  0.00  0.00     0.000 A 
ATOM     27  C16 ZIN A   1      12.092  18.498 -19.105  0.00  0.00     0.000 A 
ATOM     28  C15 ZIN A   1      12.375  17.146 -19.172  0.00  0.00     0.010 A 
ATOM     29  C14 ZIN A   1      11.354  16.235 -19.364  0.00  0.00     0.000 A 
ENDBRANCH  23  24
ENDBRANCH  22  23
BRANCH  22  30
ATOM     30  N19 ZIN A   1       9.499  13.387 -20.325  0.00  0.00    -0.700 N 
ATOM     31  H58 ZIN A   1       8.701  13.057 -20.769  0.00  0.00     0.410 HD
BRANCH  30  32
ATOM     32  C20 ZIN A   1      10.717  12.999 -20.753  0.00  0.00     0.650 C 
ATOM     33  O21 ZIN A   1      10.960  12.962 -21.942  0.00  0.00    -0.550 OA
BRANCH  32  34
ATOM     34  O22 ZIN A   1      11.663  12.650 -19.861  0.00  0.00    -0.360 OA
BRANCH  34  35
ATOM     35  C23 ZIN A   1      11.707  11.256 -19.456  0.00  0.00     0.190 C 
ATOM     36  C28 ZIN A   1      11.186  11.086 -18.013  0.00  0.00     0.200 C 
ATOM     37  O27 ZIN A   1      12.035  10.129 -17.360  0.00  0.00    -0.380 OA
ATOM     38  C26 ZIN A   1      13.024   9.641 -18.280  0.00  0.00     0.220 C 
ATOM     39  C25 ZIN A   1      13.173  10.758 -19.344  0.00  0.00     0.030 C 
ENDBRANCH  34  35
ENDBRANCH  32  34
ENDBRANCH  30  32
ENDBRANCH  22  30
ENDBRANCH   1  22
TORSDOF 14
ENDMDL
MODEL 5
REMARK VINA RESULT:      -5.3      2.315      4.200
REMARK  15 active torsions:
REMARK  status: ('A' for Active; 'I' for Inactive)
REMARK    1  A    between atoms: C2_2  and  C4_4 
REMARK    2  A    between atoms: C4_4  and  N5_5 
REMARK    3  A    between atoms: N5_5  and  C6_6 
REMARK    4  A    between atoms: N5_5  and  S29_26 
REMARK    5  A    between atoms: C6_6  and  C7_7 
REMARK    6  A    between atoms: C7_7  and  O9_8 
REMARK    7  A    between atoms: C7_7  and  C10_9 
REMARK    8  A    between atoms: C10_9  and  C12_10 
REMARK    9  A    between atoms: C10_9  and  N19_17 
REMARK   10  A    between atoms: C12_10  and  C13_11 
REMARK   11  A    between atoms: N19_17  and  C20_18 
REMARK   12  A    between atoms: C20_18  and  O22_20 
REMARK   13  A    between atoms: O22_20  and  C23_21 
REMARK   14  A    between atoms: S29_26  and  C32_29 
REMARK   15  A    between atoms: C35_32  and  N36_33 
ROOT
ATOM      1  C7  ZIN A   1       7.509  12.284 -18.014  0.00  0.00     0.190 C 
ENDROOT
BRANCH   1   2
ATOM      2  C6  ZIN A   1       6.744  13.136 -16.998  0.00  0.00     0.280 C 
BRANCH   2   3
ATOM      3  N5  ZIN A   1       6.860  12.531 -15.669  0.00  0.00    -0.990 N 
BRANCH   3   4
ATOM      4  C4  ZIN A   1       6.798  11.075 -15.519  0.00  0.00     0.310 C 
BRANCH   4   5
ATOM      5  C2  ZIN A   1       5.335  10.631 -15.452  0.00  0.00    -0.050 C 
ATOM      6  C1  ZIN A   1       5.060   9.612 -16.559  0.00  0.00     0.030 C 
ATOM      7  C3  ZIN A   1       5.058   9.992 -14.090  0.00  0.00     0.020 C 
ENDBRANCH   4   5
ENDBRANCH   3   4
BRANCH   3   8
ATOM      8  S29 ZIN A   1       7.064  13.493 -14.337  0.00  0.00     2.700 S 
ATOM      9  O30 ZIN A   1       5.847  14.208 -14.169  0.00  0.00    -0.950 OA
ATOM     10  O31 ZIN A   1       7.624  12.665 -13.327  0.00  0.00    -0.960 OA
BRANCH   8  11
ATOM     11  C32 ZIN A   1       8.293  14.688 -14.739  0.00  0.00    -0.740 A 
ATOM     12  C38 ZIN A   1       7.917  15.964 -15.120  0.00  0.00     0.170 A 
ATOM     13  C37 ZIN A   1       8.878  16.906 -15.431  0.00  0.00    -0.090 A 
ATOM     14  C35 ZIN A   1      10.224  16.568 -15.372  0.00  0.00     0.270 A 
ATOM     15  C34 ZIN A   1      10.598  15.284 -14.993  0.00  0.00    -0.090 A 
ATOM     16  C33 ZIN A   1       9.632  14.349 -14.679  0.00  0.00     0.170 A 
BRANCH  14  17
ATOM     17  N36 ZIN A   1      11.198  17.516 -15.691  0.00  0.00    -0.870 N 
ATOM     18  H67 ZIN A   1      11.882  17.746 -15.042  0.00  0.00     0.400 HD
ATOM     19  H68 ZIN A   1      11.192  17.943 -16.561  0.00  0.00     0.400 HD
ENDBRANCH  14  17
ENDBRANCH   8  11
ENDBRANCH   3   8
ENDBRANCH   2   3
ENDBRANCH   1   2
BRANCH   1  20
ATOM     20  O9  ZIN A   1       6.618  11.866 -19.051  0.00  0.00    -0.550 OA
ATOM     21  H50 ZIN A   1       6.105  11.075 -18.834  0.00  0.00     0.390 HD
ENDBRANCH   1  20
BRANCH   1  22
ATOM     22  C10 ZIN A   1       8.644  13.110 -18.619  0.00  0.00     0.240 C 
BRANCH  22  23
ATOM     23  C12 ZIN A   1       9.935  12.853 -17.838  0.00  0.00     0.060 C 
BRANCH  23  24
ATOM     24  C13 ZIN A   1      11.069  12.624 -18.804  0.00  0.00    -0.060 A 
ATOM     25  C18 ZIN A   1      10.802  12.381 -20.138  0.00  0.00     0.000 A 
ATOM     26  C17 ZIN A   1      11.843  12.176 -21.025  0.00  0.00     0.000 A 
ATOM     27  C16 ZIN A   1      13.150  12.206 -20.575  0.00  0.00     0.000 A 
ATOM     28  C15 ZIN A   1      13.417  12.444 -19.239  0.00  0.00     0.010 A 
ATOM     29  C14 ZIN A   1      12.377  12.652 -18.354  0.00  0.00     0.000 A 
ENDBRANCH  23  24
ENDBRANCH  22  23
BRANCH  22  30
ATOM     30  N19 ZIN A   1       8.306  14.533 -18.546  0.00  0.00    -0.700 N 
ATOM     31  H58 ZIN A   1       8.084  14.936 -17.691  0.00  0.00     0.410 HD
BRANCH  30  32
ATOM     32  C20 ZIN A   1       8.300  15.284 -19.666  0.00  0.00     0.650 C 
ATOM     33  O21 ZIN A   1       8.038  14.775 -20.737  0.00  0.00    -0.550 OA
BRANCH  32  34
ATOM     34  O22 ZIN A   1       8.587  16.598 -19.597  0.00  0.00    -0.360 OA
BRANCH  34  35
ATOM     35  C23 ZIN A   1       9.851  16.965 -18.984  0.00  0.00     0.190 C 
ATOM     36  C28 ZIN A   1      10.126  18.475 -19.155  0.00  0.00     0.200 C 
ATOM     37  O27 ZIN A   1      11.522  18.626 -19.458  0.00  0.00    -0.380 OA
ATOM     38  C26 ZIN A   1      12.168  17.342 -19.449  0.00  0.00     0.220 C 
ATOM     39  C25 ZIN A   1      11.042  16.320 -19.744  0.00  0.00     0.030 C 
ENDBRANCH  34  35
ENDBRANCH  32  34
ENDBRANCH  30  32
ENDBRANCH  22  30
ENDBRANCH   1  22
TORSDOF 14
ENDMDL
MODEL 6
REMARK VINA RESULT:      -5.3      3.297      7.665
REMARK  15 active torsions:
REMARK  status: ('A' for Active; 'I' for Inactive)
REMARK    1  A    between atoms: C2_2  and  C4_4 
REMARK    2  A    between atoms: C4_4  and  N5_5 
REMARK    3  A    between atoms: N5_5  and  C6_6 
REMARK    4  A    between atoms: N5_5  and  S29_26 
REMARK    5  A    between atoms: C6_6  and  C7_7 
REMARK    6  A    between atoms: C7_7  and  O9_8 
REMARK    7  A    between atoms: C7_7  and  C10_9 
REMARK    8  A    between atoms: C10_9  and  C12_10 
REMARK    9  A    between atoms: C10_9  and  N19_17 
REMARK   10  A    between atoms: C12_10  and  C13_11 
REMARK   11  A    between atoms: N19_17  and  C20_18 
REMARK   12  A    between atoms: C20_18  and  O22_20 
REMARK   13  A    between atoms: O22_20  and  C23_21 
REMARK   14  A    between atoms: S29_26  and  C32_29 
REMARK   15  A    between atoms: C35_32  and  N36_33 
ROOT
ATOM      1  C7  ZIN A   1       9.799  17.715 -15.641  0.00  0.00     0.190 C 
ENDROOT
BRANCH   1   2
ATOM      2  C6  ZIN A   1      10.247  16.706 -16.701  0.00  0.00     0.280 C 
BRANCH   2   3
ATOM      3  N5  ZIN A   1       9.686  17.084 -18.002  0.00  0.00    -0.990 N 
BRANCH   3   4
ATOM      4  C4  ZIN A   1      10.145  18.302 -18.671  0.00  0.00     0.310 C 
BRANCH   4   5
ATOM      5  C2  ZIN A   1      11.642  18.188 -18.968  0.00  0.00    -0.050 C 
ATOM      6  C1  ZIN A   1      11.856  18.071 -20.478  0.00  0.00     0.030 C 
ATOM      7  C3  ZIN A   1      12.362  19.433 -18.445  0.00  0.00     0.020 C 
ENDBRANCH   4   5
ENDBRANCH   3   4
BRANCH   3   8
ATOM      8  S29 ZIN A   1       8.533  16.132 -18.713  0.00  0.00     2.700 S 
ATOM      9  O30 ZIN A   1       7.668  15.701 -17.671  0.00  0.00    -0.950 OA
ATOM     10  O31 ZIN A   1       8.078  16.842 -19.857  0.00  0.00    -0.960 OA
BRANCH   8  11
ATOM     11  C32 ZIN A   1       9.346  14.689 -19.315  0.00  0.00    -0.740 A 
ATOM     12  C38 ZIN A   1      10.043  14.737 -20.509  0.00  0.00     0.170 A 
ATOM     13  C37 ZIN A   1      10.685  13.609 -20.981  0.00  0.00    -0.090 A 
ATOM     14  C35 ZIN A   1      10.621  12.423 -20.262  0.00  0.00     0.270 A 
ATOM     15  C34 ZIN A   1       9.916  12.377 -19.066  0.00  0.00    -0.090 A 
ATOM     16  C33 ZIN A   1       9.280  13.510 -18.597  0.00  0.00     0.170 A 
BRANCH  14  17
ATOM     17  N36 ZIN A   1      11.265  11.279 -20.739  0.00  0.00    -0.870 N 
ATOM     18  H67 ZIN A   1      10.754  10.474 -20.917  0.00  0.00     0.400 HD
ATOM     19  H68 ZIN A   1      12.222  11.291 -20.893  0.00  0.00     0.400 HD
ENDBRANCH  14  17
ENDBRANCH   8  11
ENDBRANCH   3   8
ENDBRANCH   2   3
ENDBRANCH   1   2
BRANCH   1  20
ATOM     20  O9  ZIN A   1       8.499  17.361 -15.165  0.00  0.00    -0.550 OA
ATOM     21  H50 ZIN A   1       8.344  16.407 -15.118  0.00  0.00     0.390 HD
ENDBRANCH   1  20
BRANCH   1  22
ATOM     22  C10 ZIN A   1      10.791  17.703 -14.477  0.00  0.00     0.240 C 
BRANCH  22  23
ATOM     23  C12 ZIN A   1      11.508  16.351 -14.431  0.00  0.00     0.060 C 
BRANCH  23  24
ATOM     24  C13 ZIN A   1      12.963  16.566 -14.105  0.00  0.00    -0.060 A 
ATOM     25  C18 ZIN A   1      13.468  16.152 -12.887  0.00  0.00     0.000 A 
ATOM     26  C17 ZIN A   1      14.805  16.344 -12.591  0.00  0.00     0.000 A 
ATOM     27  C16 ZIN A   1      15.634  16.960 -13.510  0.00  0.00     0.000 A 
ATOM     28  C15 ZIN A   1      15.128  17.379 -14.726  0.00  0.00     0.010 A 
ATOM     29  C14 ZIN A   1      13.793  17.183 -15.024  0.00  0.00     0.000 A 
ENDBRANCH  23  24
ENDBRANCH  22  23
BRANCH  22  30
ATOM     30  N19 ZIN A   1      10.070  17.915 -13.219  0.00  0.00    -0.700 N 
ATOM     31  H58 ZIN A   1       9.183  17.538 -13.098  0.00  0.00     0.410 HD
BRANCH  30  32
ATOM     32  C20 ZIN A   1      10.636  18.635 -12.230  0.00  0.00     0.650 C 
ATOM     33  O21 ZIN A   1      11.369  19.565 -12.499  0.00  0.00    -0.550 OA
BRANCH  32  34
ATOM     34  O22 ZIN A   1      10.390  18.322 -10.944  0.00  0.00    -0.360 OA
BRANCH  34  35
ATOM     35  C23 ZIN A   1      10.479  16.919 -10.579  0.00  0.00     0.190 C 
ATOM     36  C28 ZIN A   1       9.259  16.493  -9.734  0.00  0.00     0.200 C 
ATOM     37  O27 ZIN A   1       9.739  15.630  -8.691  0.00  0.00    -0.380 OA
ATOM     38  C26 ZIN A   1      11.156  15.432  -8.830  0.00  0.00     0.220 C 
ATOM     39  C25 ZIN A   1      11.663  16.675  -9.605  0.00  0.00     0.030 C 
ENDBRANCH  34  35
ENDBRANCH  32  34
ENDBRANCH  30  32
ENDBRANCH  22  30
ENDBRANCH   1  22
TORSDOF 14
ENDMDL
MODEL 7
REMARK VINA RESULT:      -5.3      4.125      6.527
REMARK  15 active torsions:
REMARK  status: ('A' for Active; 'I' for Inactive)
REMARK    1  A    between atoms: C2_2  and  C4_4 
REMARK    2  A    between atoms: C4_4  and  N5_5 
REMARK    3  A    between atoms: N5_5  and  C6_6 
REMARK    4  A    between atoms: N5_5  and  S29_26 
REMARK    5  A    between atoms: C6_6  and  C7_7 
REMARK    6  A    between atoms: C7_7  and  O9_8 
REMARK    7  A    between atoms: C7_7  and  C10_9 
REMARK    8  A    between atoms: C10_9  and  C12_10 
REMARK    9  A    between atoms: C10_9  and  N19_17 
REMARK   10  A    between atoms: C12_10  and  C13_11 
REMARK   11  A    between atoms: N19_17  and  C20_18 
REMARK   12  A    between atoms: C20_18  and  O22_20 
REMARK   13  A    between atoms: O22_20  and  C23_21 
REMARK   14  A    between atoms: S29_26  and  C32_29 
REMARK   15  A    between atoms: C35_32  and  N36_33 
ROOT
ATOM      1  C7  ZIN A   1      11.752  16.498 -14.234  0.00  0.00     0.190 C 
ENDROOT
BRANCH   1   2
ATOM      2  C6  ZIN A   1      11.116  16.185 -12.877  0.00  0.00     0.280 C 
BRANCH   2   3
ATOM      3  N5  ZIN A   1      11.250  17.348 -11.996  0.00  0.00    -0.990 N 
BRANCH   3   4
ATOM      4  C4  ZIN A   1      12.517  18.080 -11.937  0.00  0.00     0.310 C 
BRANCH   4   5
ATOM      5  C2  ZIN A   1      13.489  17.343 -11.012  0.00  0.00    -0.050 C 
ATOM      6  C1  ZIN A   1      14.770  17.010 -11.779  0.00  0.00     0.030 C 
ATOM      7  C3  ZIN A   1      13.828  18.235  -9.816  0.00  0.00     0.020 C 
ENDBRANCH   4   5
ENDBRANCH   3   4
BRANCH   3   8
ATOM      8  S29 ZIN A   1       9.968  17.835 -11.068  0.00  0.00     2.700 S 
ATOM      9  O30 ZIN A   1      10.378  19.026 -10.410  0.00  0.00    -0.950 OA
ATOM     10  O31 ZIN A   1       8.820  17.764 -11.902  0.00  0.00    -0.960 OA
BRANCH   8  11
ATOM     11  C32 ZIN A   1       9.743  16.623  -9.810  0.00  0.00    -0.740 A 
ATOM     12  C38 ZIN A   1      10.671  16.507  -8.790  0.00  0.00     0.170 A 
ATOM     13  C37 ZIN A   1      10.496  15.561  -7.799  0.00  0.00    -0.090 A 
ATOM     14  C35 ZIN A   1       9.393  14.718  -7.833  0.00  0.00     0.270 A 
ATOM     15  C34 ZIN A   1       8.467  14.833  -8.862  0.00  0.00    -0.090 A 
ATOM     16  C33 ZIN A   1       8.645  15.784  -9.846  0.00  0.00     0.170 A 
BRANCH  14  17
ATOM     17  N36 ZIN A   1       9.216  13.756  -6.836  0.00  0.00    -0.870 N 
ATOM     18  H67 ZIN A   1       9.988  13.364  -6.398  0.00  0.00     0.400 HD
ATOM     19  H68 ZIN A   1       8.322  13.483  -6.580  0.00  0.00     0.400 HD
ENDBRANCH  14  17
ENDBRANCH   8  11
ENDBRANCH   3   8
ENDBRANCH   2   3
ENDBRANCH   1   2
BRANCH   1  20
ATOM     20  O9  ZIN A   1      12.620  15.426 -14.611  0.00  0.00    -0.550 OA
ATOM     21  H50 ZIN A   1      12.774  15.361 -15.564  0.00  0.00     0.390 HD
ENDBRANCH   1  20
BRANCH   1  22
ATOM     22  C10 ZIN A   1      10.654  16.660 -15.286  0.00  0.00     0.240 C 
BRANCH  22  23
ATOM     23  C12 ZIN A   1      10.739  18.059 -15.900  0.00  0.00     0.060 C 
BRANCH  23  24
ATOM     24  C13 ZIN A   1      11.065  17.944 -17.367  0.00  0.00    -0.060 A 
ATOM     25  C18 ZIN A   1      10.716  18.962 -18.234  0.00  0.00     0.000 A 
ATOM     26  C17 ZIN A   1      11.021  18.858 -19.579  0.00  0.00     0.000 A 
ATOM     27  C16 ZIN A   1      11.666  17.733 -20.057  0.00  0.00     0.000 A 
ATOM     28  C15 ZIN A   1      12.011  16.713 -19.190  0.00  0.00     0.010 A 
ATOM     29  C14 ZIN A   1      11.710  16.818 -17.845  0.00  0.00     0.000 A 
ENDBRANCH  23  24
ENDBRANCH  22  23
BRANCH  22  30
ATOM     30  N19 ZIN A   1       9.344  16.482 -14.656  0.00  0.00    -0.700 N 
ATOM     31  H58 ZIN A   1       9.236  16.647 -13.705  0.00  0.00     0.410 HD
BRANCH  30  32
ATOM     32  C20 ZIN A   1       8.288  16.088 -15.395  0.00  0.00     0.650 C 
ATOM     33  O21 ZIN A   1       7.478  15.312 -14.931  0.00  0.00    -0.550 OA
BRANCH  32  34
ATOM     34  O22 ZIN A   1       8.132  16.556 -16.648  0.00  0.00    -0.360 OA
BRANCH  34  35
ATOM     35  C23 ZIN A   1       7.907  15.574 -17.694  0.00  0.00     0.190 C 
ATOM     36  C28 ZIN A   1       8.984  14.470 -17.653  0.00  0.00     0.200 C 
ATOM     37  O27 ZIN A   1       9.344  14.169 -19.011  0.00  0.00    -0.380 OA
ATOM     38  C26 ZIN A   1       8.552  14.957 -19.915  0.00  0.00     0.220 C 
ATOM     39  C25 ZIN A   1       8.124  16.203 -19.098  0.00  0.00     0.030 C 
ENDBRANCH  34  35
ENDBRANCH  32  34
ENDBRANCH  30  32
ENDBRANCH  22  30
ENDBRANCH   1  22
TORSDOF 14
ENDMDL
MODEL 8
REMARK VINA RESULT:      -5.3      2.904      4.777
REMARK  15 active torsions:
REMARK  status: ('A' for Active; 'I' for Inactive)
REMARK    1  A    between atoms: C2_2  and  C4_4 
REMARK    2  A    between atoms: C4_4  and  N5_5 
REMARK    3  A    between atoms: N5_5  and  C6_6 
REMARK    4  A    between atoms: N5_5  and  S29_26 
REMARK    5  A    between atoms: C6_6  and  C7_7 
REMARK    6  A    between atoms: C7_7  and  O9_8 
REMARK    7  A    between atoms: C7_7  and  C10_9 
REMARK    8  A    between atoms: C10_9  and  C12_10 
REMARK    9  A    between atoms: C10_9  and  N19_17 
REMARK   10  A    between atoms: C12_10  and  C13_11 
REMARK   11  A    between atoms: N19_17  and  C20_18 
REMARK   12  A    between atoms: C20_18  and  O22_20 
REMARK   13  A    between atoms: O22_20  and  C23_21 
REMARK   14  A    between atoms: S29_26  and  C32_29 
REMARK   15  A    between atoms: C35_32  and  N36_33 
ROOT
ATOM      1  C7  ZIN A   1      10.321  16.736 -14.635  0.00  0.00     0.190 C 
ENDROOT
BRANCH   1   2
ATOM      2  C6  ZIN A   1      11.818  16.933 -14.381  0.00  0.00     0.280 C 
BRANCH   2   3
ATOM      3  N5  ZIN A   1      12.005  17.849 -13.252  0.00  0.00    -0.990 N 
BRANCH   3   4
ATOM      4  C4  ZIN A   1      11.699  17.404 -11.891  0.00  0.00     0.310 C 
BRANCH   4   5
ATOM      5  C2  ZIN A   1      10.539  18.232 -11.332  0.00  0.00    -0.050 C 
ATOM      6  C1  ZIN A   1       9.361  17.310 -11.014  0.00  0.00     0.030 C 
ATOM      7  C3  ZIN A   1      10.990  18.943 -10.055  0.00  0.00     0.020 C 
ENDBRANCH   4   5
ENDBRANCH   3   4
BRANCH   3   8
ATOM      8  S29 ZIN A   1      12.562  19.385 -13.517  0.00  0.00     2.700 S 
ATOM      9  O30 ZIN A   1      11.414  20.214 -13.636  0.00  0.00    -0.950 OA
ATOM     10  O31 ZIN A   1      13.588  19.609 -12.559  0.00  0.00    -0.960 OA
BRANCH   8  11
ATOM     11  C32 ZIN A   1      13.346  19.392 -15.095  0.00  0.00    -0.740 A 
ATOM     12  C38 ZIN A   1      14.571  18.770 -15.259  0.00  0.00     0.170 A 
ATOM     13  C37 ZIN A   1      15.187  18.769 -16.496  0.00  0.00    -0.090 A 
ATOM     14  C35 ZIN A   1      14.580  19.403 -17.572  0.00  0.00     0.270 A 
ATOM     15  C34 ZIN A   1      13.352  20.030 -17.402  0.00  0.00    -0.090 A 
ATOM     16  C33 ZIN A   1      12.740  20.023 -16.165  0.00  0.00     0.170 A 
BRANCH  14  17
ATOM     17  N36 ZIN A   1      15.202  19.408 -18.823  0.00  0.00    -0.870 N 
ATOM     18  H67 ZIN A   1      14.686  19.218 -19.622  0.00  0.00     0.400 HD
ATOM     19  H68 ZIN A   1      16.149  19.603 -18.892  0.00  0.00     0.400 HD
ENDBRANCH  14  17
ENDBRANCH   8  11
ENDBRANCH   3   8
ENDBRANCH   2   3
ENDBRANCH   1   2
BRANCH   1  20
ATOM     20  O9  ZIN A   1       9.663  18.005 -14.612  0.00  0.00    -0.550 OA
ATOM     21  H50 ZIN A   1       9.679  18.441 -13.749  0.00  0.00     0.390 HD
ENDBRANCH   1  20
BRANCH   1  22
ATOM     22  C10 ZIN A   1      10.118  16.079 -16.001  0.00  0.00     0.240 C 
BRANCH  22  23
ATOM     23  C12 ZIN A   1       9.467  17.081 -16.957  0.00  0.00     0.060 C 
BRANCH  23  24
ATOM     24  C13 ZIN A   1      10.405  17.366 -18.101  0.00  0.00    -0.060 A 
ATOM     25  C18 ZIN A   1      11.647  16.760 -18.143  0.00  0.00     0.000 A 
ATOM     26  C17 ZIN A   1      12.505  17.018 -19.197  0.00  0.00     0.000 A 
ATOM     27  C16 ZIN A   1      12.125  17.887 -20.201  0.00  0.00     0.000 A 
ATOM     28  C15 ZIN A   1      10.885  18.497 -20.156  0.00  0.00     0.010 A 
ATOM     29  C14 ZIN A   1      10.025  18.237 -19.106  0.00  0.00     0.000 A 
ENDBRANCH  23  24
ENDBRANCH  22  23
BRANCH  22  30
ATOM     30  N19 ZIN A   1       9.250  14.908 -15.856  0.00  0.00    -0.700 N 
ATOM     31  H58 ZIN A   1       8.797  14.741 -15.014  0.00  0.00     0.410 HD
BRANCH  30  32
ATOM     32  C20 ZIN A   1       9.081  14.062 -16.891  0.00  0.00     0.650 C 
ATOM     33  O21 ZIN A   1       7.968  13.675 -17.184  0.00  0.00    -0.550 OA
BRANCH  32  34
ATOM     34  O22 ZIN A   1      10.147  13.645 -17.600  0.00  0.00    -0.360 OA
BRANCH  34  35
ATOM     35  C23 ZIN A   1       9.887  13.102 -18.922  0.00  0.00     0.190 C 
ATOM     36  C28 ZIN A   1      10.942  12.039 -19.297  0.00  0.00     0.200 C 
ATOM     37  O27 ZIN A   1      11.278  12.236 -20.679  0.00  0.00    -0.380 OA
ATOM     38  C26 ZIN A   1      10.491  13.305 -21.229  0.00  0.00     0.220 C 
ATOM     39  C25 ZIN A   1      10.100  14.185 -20.015  0.00  0.00     0.030 C 
ENDBRANCH  34  35
ENDBRANCH  32  34
ENDBRANCH  30  32
ENDBRANCH  22  30
ENDBRANCH   1  22
TORSDOF 14
ENDMDL
MODEL 9
REMARK VINA RESULT:      -5.2      2.174      6.716
REMARK  15 active torsions:
REMARK  status: ('A' for Active; 'I' for Inactive)
REMARK    1  A    between atoms: C2_2  and  C4_4 
REMARK    2  A    between atoms: C4_4  and  N5_5 
REMARK    3  A    between atoms: N5_5  and  C6_6 
REMARK    4  A    between atoms: N5_5  and  S29_26 
REMARK    5  A    between atoms: C6_6  and  C7_7 
REMARK    6  A    between atoms: C7_7  and  O9_8 
REMARK    7  A    between atoms: C7_7  and  C10_9 
REMARK    8  A    between atoms: C10_9  and  C12_10 
REMARK    9  A    between atoms: C10_9  and  N19_17 
REMARK   10  A    between atoms: C12_10  and  C13_11 
REMARK   11  A    between atoms: N19_17  and  C20_18 
REMARK   12  A    between atoms: C20_18  and  O22_20 
REMARK   13  A    between atoms: O22_20  and  C23_21 
REMARK   14  A    between atoms: S29_26  and  C32_29 
REMARK   15  A    between atoms: C35_32  and  N36_33 
ROOT
ATOM      1  C7  ZIN A   1       8.688  13.412 -16.056  0.00  0.00     0.190 C 
ENDROOT
BRANCH   1   2
ATOM      2  C6  ZIN A   1       9.683  14.152 -16.953  0.00  0.00     0.280 C 
BRANCH   2   3
ATOM      3  N5  ZIN A   1       9.310  13.960 -18.357  0.00  0.00    -0.990 N 
BRANCH   3   4
ATOM      4  C4  ZIN A   1       9.502  12.655 -18.994  0.00  0.00     0.310 C 
BRANCH   4   5
ATOM      5  C2  ZIN A   1      10.977  12.480 -19.362  0.00  0.00    -0.050 C 
ATOM      6  C1  ZIN A   1      11.504  11.179 -18.753  0.00  0.00     0.030 C 
ATOM      7  C3  ZIN A   1      11.119  12.423 -20.884  0.00  0.00     0.020 C 
ENDBRANCH   4   5
ENDBRANCH   3   4
BRANCH   3   8
ATOM      8  S29 ZIN A   1       8.670  15.218 -19.223  0.00  0.00     2.700 S 
ATOM      9  O30 ZIN A   1       8.498  14.745 -20.552  0.00  0.00    -0.950 OA
ATOM     10  O31 ZIN A   1       7.606  15.742 -18.440  0.00  0.00    -0.960 OA
BRANCH   8  11
ATOM     11  C32 ZIN A   1       9.898  16.479 -19.298  0.00  0.00    -0.740 A 
ATOM     12  C38 ZIN A   1       9.532  17.807 -19.173  0.00  0.00     0.170 A 
ATOM     13  C37 ZIN A   1      10.493  18.798 -19.227  0.00  0.00    -0.090 A 
ATOM     14  C35 ZIN A   1      11.826  18.461 -19.417  0.00  0.00     0.270 A 
ATOM     15  C34 ZIN A   1      12.189  17.126 -19.547  0.00  0.00    -0.090 A 
ATOM     16  C33 ZIN A   1      11.225  16.140 -19.487  0.00  0.00     0.170 A 
BRANCH  14  17
ATOM     17  N36 ZIN A   1      12.800  19.461 -19.477  0.00  0.00    -0.870 N 
ATOM     18  H67 ZIN A   1      13.267  19.731 -18.671  0.00  0.00     0.400 HD
ATOM     19  H68 ZIN A   1      13.008  19.883 -20.324  0.00  0.00     0.400 HD
ENDBRANCH  14  17
ENDBRANCH   8  11
ENDBRANCH   3   8
ENDBRANCH   2   3
ENDBRANCH   1   2
BRANCH   1  20
ATOM     20  O9  ZIN A   1       9.385  12.439 -15.274  0.00  0.00    -0.550 OA
ATOM     21  H50 ZIN A   1       9.702  11.679 -15.783  0.00  0.00     0.390 HD
ENDBRANCH   1  20
BRANCH   1  22
ATOM     22  C10 ZIN A   1       7.997  14.412 -15.129  0.00  0.00     0.240 C 
BRANCH  22  23
ATOM     23  C12 ZIN A   1       6.513  14.055 -15.008  0.00  0.00     0.060 C 
BRANCH  23  24
ATOM     24  C13 ZIN A   1       6.173  13.808 -13.560  0.00  0.00    -0.060 A 
ATOM     25  C18 ZIN A   1       6.141  12.517 -13.068  0.00  0.00     0.000 A 
ATOM     26  C17 ZIN A   1       5.834  12.292 -11.739  0.00  0.00     0.000 A 
ATOM     27  C16 ZIN A   1       5.551  13.357 -10.905  0.00  0.00     0.000 A 
ATOM     28  C15 ZIN A   1       5.578  14.649 -11.399  0.00  0.00     0.010 A 
ATOM     29  C14 ZIN A   1       5.889  14.874 -12.726  0.00  0.00     0.000 A 
ENDBRANCH  23  24
ENDBRANCH  22  23
BRANCH  22  30
ATOM     30  N19 ZIN A   1       8.130  15.763 -15.681  0.00  0.00    -0.700 N 
ATOM     31  H58 ZIN A   1       7.773  15.965 -16.561  0.00  0.00     0.410 HD
BRANCH  30  32
ATOM     32  C20 ZIN A   1       8.749  16.725 -14.968  0.00  0.00     0.650 C 
ATOM     33  O21 ZIN A   1       8.759  16.670 -13.755  0.00  0.00    -0.550 OA
BRANCH  32  34
ATOM     34  O22 ZIN A   1       9.355  17.746 -15.602  0.00  0.00    -0.360 OA
BRANCH  34  35
ATOM     35  C23 ZIN A   1      10.714  18.060 -15.196  0.00  0.00     0.190 C 
ATOM     36  C28 ZIN A   1      11.147  19.437 -15.743  0.00  0.00     0.200 C 
ATOM     37  O27 ZIN A   1      12.509  19.316 -16.182  0.00  0.00    -0.380 OA
ATOM     38  C26 ZIN A   1      12.995  17.990 -15.918  0.00  0.00     0.220 C 
ATOM     39  C25 ZIN A   1      11.729  17.097 -15.871  0.00  0.00     0.030 C 
ENDBRANCH  34  35
ENDBRANCH  32  34
ENDBRANCH  30  32
ENDBRANCH  22  30
ENDBRANCH   1  22
TORSDOF 14
ENDMDL
