MODEL 1
REMARK VINA RESULT:      -6.7      0.000      0.000
REMARK  14 active torsions:
REMARK  status: ('A' for Active; 'I' for Inactive)
REMARK    1  A    between atoms: C2_2  and  C4_4 
REMARK    2  A    between atoms: C4_4  and  N5_5 
REMARK    3  A    between atoms: N5_5  and  C6_6 
REMARK    4  A    between atoms: N5_5  and  S34_29 
REMARK    5  A    between atoms: C6_6  and  C7_7 
REMARK    6  A    between atoms: C7_7  and  O9_8 
REMARK    7  A    between atoms: C7_7  and  C10_9 
REMARK    8  A    between atoms: C10_9  and  C12_10 
REMARK    9  A    between atoms: C10_9  and  N19_17 
REMARK   10  A    between atoms: C12_10  and  C13_11 
REMARK       I    between atoms: N19_17  and  C20_18 
REMARK   11  A    between atoms: C20_18  and  O22_20 
REMARK   12  A    between atoms: O22_20  and  C23_21 
REMARK   13  A    between atoms: S34_29  and  C37_32 
REMARK   14  A    between atoms: C40_35  and  N41_36 
ROOT
ATOM      1  C7  ZIN A   1       8.987  14.222 -18.002  0.00  0.00     0.190 C 
ENDROOT
BRANCH   1   2
ATOM      2  C6  ZIN A   1      10.451  13.935 -17.658  0.00  0.00     0.280 C 
BRANCH   2   3
ATOM      3  N5  ZIN A   1      10.738  12.517 -17.894  0.00  0.00    -0.990 N 
BRANCH   3   4
ATOM      4  C4  ZIN A   1      10.702  11.980 -19.256  0.00  0.00     0.310 C 
BRANCH   4   5
ATOM      5  C2  ZIN A   1      11.521  12.883 -20.182  0.00  0.00    -0.050 C 
ATOM      6  C1  ZIN A   1      12.681  12.084 -20.778  0.00  0.00     0.030 C 
ATOM      7  C3  ZIN A   1      10.626  13.400 -21.310  0.00  0.00     0.020 C 
ENDBRANCH   4   5
ENDBRANCH   3   4
BRANCH   3   8
ATOM      8  S34 ZIN A   1      11.104  11.524 -16.621  0.00  0.00     2.700 S 
ATOM      9  O35 ZIN A   1      10.589  12.156 -15.457  0.00  0.00    -0.950 OA
ATOM     10  O36 ZIN A   1      10.737  10.210 -17.020  0.00  0.00    -0.960 OA
BRANCH   8  11
ATOM     11  C37 ZIN A   1      12.857  11.519 -16.450  0.00  0.00    -0.740 A 
ATOM     12  C43 ZIN A   1      13.636  10.813 -17.350  0.00  0.00     0.170 A 
ATOM     13  C42 ZIN A   1      15.012  10.811 -17.221  0.00  0.00    -0.090 A 
ATOM     14  C40 ZIN A   1      15.612  11.509 -16.182  0.00  0.00     0.270 A 
ATOM     15  C39 ZIN A   1      14.826  12.212 -15.278  0.00  0.00    -0.090 A 
ATOM     16  C38 ZIN A   1      13.452  12.215 -15.414  0.00  0.00     0.170 A 
BRANCH  14  17
ATOM     17  N41 ZIN A   1      17.002  11.504 -16.046  0.00  0.00    -0.870 N 
ATOM     18  H72 ZIN A   1      17.445  10.752 -15.622  0.00  0.00     0.400 HD
ATOM     19  H73 ZIN A   1      17.523  12.251 -16.377  0.00  0.00     0.400 HD
ENDBRANCH  14  17
ENDBRANCH   8  11
ENDBRANCH   3   8
ENDBRANCH   2   3
ENDBRANCH   1   2
BRANCH   1  20
ATOM     20  O9  ZIN A   1       8.137  13.523 -17.091  0.00  0.00    -0.550 OA
ATOM     21  H55 ZIN A   1       8.409  13.594 -16.165  0.00  0.00     0.390 HD
ENDBRANCH   1  20
BRANCH   1  22
ATOM     22  C10 ZIN A   1       8.724  15.725 -17.894  0.00  0.00     0.240 C 
BRANCH  22  23
ATOM     23  C12 ZIN A   1       8.861  16.367 -19.277  0.00  0.00     0.060 C 
BRANCH  23  24
ATOM     24  C13 ZIN A   1      10.097  17.229 -19.310  0.00  0.00    -0.060 A 
ATOM     25  C18 ZIN A   1       9.999  18.588 -19.080  0.00  0.00     0.000 A 
ATOM     26  C17 ZIN A   1      11.134  19.377 -19.105  0.00  0.00    -0.010 A 
ATOM     27  C16 ZIN A   1      12.365  18.808 -19.368  0.00  0.00     0.000 A 
ATOM     28  C15 ZIN A   1      12.464  17.449 -19.602  0.00  0.00     0.010 A 
ATOM     29  C14 ZIN A   1      11.330  16.660 -19.574  0.00  0.00     0.020 A 
ENDBRANCH  23  24
ENDBRANCH  22  23
BRANCH  22  30
ATOM     30  N19 ZIN A   1       9.697  16.326 -16.979  0.00  0.00    -0.700 N 
ATOM     31  C20 ZIN A   1       9.276  16.935 -15.852  0.00  0.00     0.640 C 
ATOM     32  O21 ZIN A   1       8.091  16.985 -15.596  0.00  0.00    -0.550 OA
ATOM     33  H63 ZIN A   1      10.646  16.286 -17.183  0.00  0.00     0.410 HD
BRANCH  31  34
ATOM     34  O22 ZIN A   1      10.171  17.487 -15.011  0.00  0.00    -0.350 OA
BRANCH  34  35
ATOM     35  C23 ZIN A   1      11.309  18.162 -15.610  0.00  0.00     0.200 C 
ATOM     36  C32 ZIN A   1      12.608  17.799 -14.864  0.00  0.00    -0.030 C 
ATOM     37  C27 ZIN A   1      13.055  19.134 -14.200  0.00  0.00     0.340 C 
ATOM     38  C31 ZIN A   1      12.262  16.933 -13.598  0.00  0.00     0.050 C 
ATOM     39  O26 ZIN A   1      11.869  19.959 -14.184  0.00  0.00    -0.370 OA
ATOM     40  O29 ZIN A   1      13.423  18.852 -12.843  0.00  0.00    -0.360 OA
ATOM     41  C25 ZIN A   1      11.188  19.692 -15.428  0.00  0.00     0.220 C 
ATOM     42  C30 ZIN A   1      13.328  17.441 -12.593  0.00  0.00     0.210 C 
ENDBRANCH  34  35
ENDBRANCH  31  34
ENDBRANCH  22  30
ENDBRANCH   1  22
TORSDOF 14
ENDMDL
MODEL 2
REMARK VINA RESULT:      -6.5      3.864      6.092
REMARK  14 active torsions:
REMARK  status: ('A' for Active; 'I' for Inactive)
REMARK    1  A    between atoms: C2_2  and  C4_4 
REMARK    2  A    between atoms: C4_4  and  N5_5 
REMARK    3  A    between atoms: N5_5  and  C6_6 
REMARK    4  A    between atoms: N5_5  and  S34_29 
REMARK    5  A    between atoms: C6_6  and  C7_7 
REMARK    6  A    between atoms: C7_7  and  O9_8 
REMARK    7  A    between atoms: C7_7  and  C10_9 
REMARK    8  A    between atoms: C10_9  and  C12_10 
REMARK    9  A    between atoms: C10_9  and  N19_17 
REMARK   10  A    between atoms: C12_10  and  C13_11 
REMARK       I    between atoms: N19_17  and  C20_18 
REMARK   11  A    between atoms: C20_18  and  O22_20 
REMARK   12  A    between atoms: O22_20  and  C23_21 
REMARK   13  A    between atoms: S34_29  and  C37_32 
REMARK   14  A    between atoms: C40_35  and  N41_36 
ROOT
ATOM      1  C7  ZIN A   1       8.528  15.570 -15.065  0.00  0.00     0.190 C 
ENDROOT
BRANCH   1   2
ATOM      2  C6  ZIN A   1       9.235  14.368 -15.697  0.00  0.00     0.280 C 
BRANCH   2   3
ATOM      3  N5  ZIN A   1       8.936  14.324 -17.131  0.00  0.00    -0.990 N 
BRANCH   3   4
ATOM      4  C4  ZIN A   1       7.545  14.257 -17.586  0.00  0.00     0.310 C 
BRANCH   4   5
ATOM      5  C2  ZIN A   1       6.915  12.946 -17.111  0.00  0.00    -0.050 C 
ATOM      6  C1  ZIN A   1       5.499  13.216 -16.600  0.00  0.00     0.030 C 
ATOM      7  C3  ZIN A   1       6.857  11.958 -18.277  0.00  0.00     0.020 C 
ENDBRANCH   4   5
ENDBRANCH   3   4
BRANCH   3   8
ATOM      8  S34 ZIN A   1      10.169  14.352 -18.235  0.00  0.00     2.700 S 
ATOM      9  O35 ZIN A   1      11.277  13.713 -17.616  0.00  0.00    -0.950 OA
ATOM     10  O36 ZIN A   1       9.612  13.920 -19.469  0.00  0.00    -0.960 OA
BRANCH   8  11
ATOM     11  C37 ZIN A   1      10.630  16.037 -18.461  0.00  0.00    -0.740 A 
ATOM     12  C43 ZIN A   1       9.690  17.038 -18.292  0.00  0.00     0.170 A 
ATOM     13  C42 ZIN A   1      10.048  18.361 -18.464  0.00  0.00    -0.090 A 
ATOM     14  C40 ZIN A   1      11.351  18.685 -18.818  0.00  0.00     0.270 A 
ATOM     15  C39 ZIN A   1      12.291  17.677 -18.993  0.00  0.00    -0.090 A 
ATOM     16  C38 ZIN A   1      11.927  16.357 -18.814  0.00  0.00     0.170 A 
BRANCH  14  17
ATOM     17  N41 ZIN A   1      11.716  20.021 -18.998  0.00  0.00    -0.870 N 
ATOM     18  H72 ZIN A   1      11.821  20.603 -18.229  0.00  0.00     0.400 HD
ATOM     19  H73 ZIN A   1      11.865  20.367 -19.892  0.00  0.00     0.400 HD
ENDBRANCH  14  17
ENDBRANCH   8  11
ENDBRANCH   3   8
ENDBRANCH   2   3
ENDBRANCH   1   2
BRANCH   1  20
ATOM     20  O9  ZIN A   1       7.417  15.114 -14.290  0.00  0.00    -0.550 OA
ATOM     21  H55 ZIN A   1       6.727  14.678 -14.809  0.00  0.00     0.390 HD
ENDBRANCH   1  20
BRANCH   1  22
ATOM     22  C10 ZIN A   1       9.508  16.320 -14.162  0.00  0.00     0.240 C 
BRANCH  22  23
ATOM     23  C12 ZIN A   1      10.939  16.076 -14.648  0.00  0.00     0.060 C 
BRANCH  23  24
ATOM     24  C13 ZIN A   1      11.588  17.396 -14.977  0.00  0.00    -0.060 A 
ATOM     25  C18 ZIN A   1      12.925  17.440 -15.326  0.00  0.00     0.000 A 
ATOM     26  C17 ZIN A   1      13.519  18.650 -15.633  0.00  0.00    -0.010 A 
ATOM     27  C16 ZIN A   1      12.779  19.816 -15.582  0.00  0.00     0.000 A 
ATOM     28  C15 ZIN A   1      11.443  19.772 -15.229  0.00  0.00     0.010 A 
ATOM     29  C14 ZIN A   1      10.848  18.562 -14.925  0.00  0.00     0.020 A 
ENDBRANCH  23  24
ENDBRANCH  22  23
BRANCH  22  30
ATOM     30  N19 ZIN A   1       9.371  15.837 -12.786  0.00  0.00    -0.700 N 
ATOM     31  C20 ZIN A   1       9.081  16.703 -11.793  0.00  0.00     0.640 C 
ATOM     32  O21 ZIN A   1       8.934  17.882 -12.040  0.00  0.00    -0.550 OA
ATOM     33  H63 ZIN A   1       9.489  14.894 -12.588  0.00  0.00     0.410 HD
BRANCH  31  34
ATOM     34  O22 ZIN A   1       8.956  16.258 -10.529  0.00  0.00    -0.350 OA
BRANCH  34  35
ATOM     35  C23 ZIN A   1       9.568  14.979 -10.216  0.00  0.00     0.200 C 
ATOM     36  C32 ZIN A   1       8.576  14.075  -9.457  0.00  0.00    -0.030 C 
ATOM     37  C27 ZIN A   1       9.200  13.930  -8.037  0.00  0.00     0.340 C 
ATOM     38  C31 ZIN A   1       7.269  14.887  -9.130  0.00  0.00     0.050 C 
ATOM     39  O26 ZIN A   1      10.129  15.030  -7.922  0.00  0.00    -0.370 OA
ATOM     40  O29 ZIN A   1       8.156  14.123  -7.073  0.00  0.00    -0.360 OA
ATOM     41  C25 ZIN A   1      10.738  15.167  -9.224  0.00  0.00     0.220 C 
ATOM     42  C30 ZIN A   1       6.898  14.303  -7.743  0.00  0.00     0.210 C 
ENDBRANCH  34  35
ENDBRANCH  31  34
ENDBRANCH  22  30
ENDBRANCH   1  22
TORSDOF 14
ENDMDL
MODEL 3
REMARK VINA RESULT:      -6.5      3.228      5.246
REMARK  14 active torsions:
REMARK  status: ('A' for Active; 'I' for Inactive)
REMARK    1  A    between atoms: C2_2  and  C4_4 
REMARK    2  A    between atoms: C4_4  and  N5_5 
REMARK    3  A    between atoms: N5_5  and  C6_6 
REMARK    4  A    between atoms: N5_5  and  S34_29 
REMARK    5  A    between atoms: C6_6  and  C7_7 
REMARK    6  A    between atoms: C7_7  and  O9_8 
REMARK    7  A    between atoms: C7_7  and  C10_9 
REMARK    8  A    between atoms: C10_9  and  C12_10 
REMARK    9  A    between atoms: C10_9  and  N19_17 
REMARK   10  A    between atoms: C12_10  and  C13_11 
REMARK       I    between atoms: N19_17  and  C20_18 
REMARK   11  A    between atoms: C20_18  and  O22_20 
REMARK   12  A    between atoms: O22_20  and  C23_21 
REMARK   13  A    between atoms: S34_29  and  C37_32 
REMARK   14  A    between atoms: C40_35  and  N41_36 
ROOT
ATOM      1  C7  ZIN A   1      11.644  12.854 -20.243  0.00  0.00     0.190 C 
ENDROOT
BRANCH   1   2
ATOM      2  C6  ZIN A   1      11.181  11.701 -19.349  0.00  0.00     0.280 C 
BRANCH   2   3
ATOM      3  N5  ZIN A   1      12.323  11.185 -18.589  0.00  0.00    -0.990 N 
BRANCH   3   4
ATOM      4  C4  ZIN A   1      13.268  10.264 -19.223  0.00  0.00     0.310 C 
BRANCH   4   5
ATOM      5  C2  ZIN A   1      12.524   9.013 -19.695  0.00  0.00    -0.050 C 
ATOM      6  C1  ZIN A   1      12.736   8.829 -21.198  0.00  0.00     0.030 C 
ATOM      7  C3  ZIN A   1      13.061   7.789 -18.951  0.00  0.00     0.020 C 
ENDBRANCH   4   5
ENDBRANCH   3   4
BRANCH   3   8
ATOM      8  S34 ZIN A   1      12.544  11.644 -17.014  0.00  0.00     2.700 S 
ATOM      9  O35 ZIN A   1      13.772  12.359 -16.972  0.00  0.00    -0.950 OA
ATOM     10  O36 ZIN A   1      11.308  12.196 -16.580  0.00  0.00    -0.960 OA
BRANCH   8  11
ATOM     11  C37 ZIN A   1      12.790  10.176 -16.071  0.00  0.00    -0.740 A 
ATOM     12  C43 ZIN A   1      11.718   9.346 -15.794  0.00  0.00     0.170 A 
ATOM     13  C42 ZIN A   1      11.908   8.193 -15.059  0.00  0.00    -0.090 A 
ATOM     14  C40 ZIN A   1      13.174   7.871 -14.588  0.00  0.00     0.270 A 
ATOM     15  C39 ZIN A   1      14.247   8.710 -14.864  0.00  0.00    -0.090 A 
ATOM     16  C38 ZIN A   1      14.051   9.859 -15.603  0.00  0.00     0.170 A 
BRANCH  14  17
ATOM     17  N41 ZIN A   1      13.368   6.708 -13.841  0.00  0.00    -0.870 N 
ATOM     18  H72 ZIN A   1      14.255   6.478 -13.522  0.00  0.00     0.400 HD
ATOM     19  H73 ZIN A   1      12.616   6.130 -13.639  0.00  0.00     0.400 HD
ENDBRANCH  14  17
ENDBRANCH   8  11
ENDBRANCH   3   8
ENDBRANCH   2   3
ENDBRANCH   1   2
BRANCH   1  20
ATOM     20  O9  ZIN A   1      11.116  12.677 -21.559  0.00  0.00    -0.550 OA
ATOM     21  H55 ZIN A   1      10.160  12.532 -21.584  0.00  0.00     0.390 HD
ENDBRANCH   1  20
BRANCH   1  22
ATOM     22  C10 ZIN A   1      11.142  14.179 -19.665  0.00  0.00     0.240 C 
BRANCH  22  23
ATOM     23  C12 ZIN A   1      12.270  14.852 -18.878  0.00  0.00     0.060 C 
BRANCH  23  24
ATOM     24  C13 ZIN A   1      12.171  16.347 -19.041  0.00  0.00    -0.060 A 
ATOM     25  C18 ZIN A   1      13.004  17.177 -18.315  0.00  0.00     0.000 A 
ATOM     26  C17 ZIN A   1      12.917  18.549 -18.469  0.00  0.00    -0.010 A 
ATOM     27  C16 ZIN A   1      11.990  19.089 -19.340  0.00  0.00     0.000 A 
ATOM     28  C15 ZIN A   1      11.153  18.258 -20.062  0.00  0.00     0.010 A 
ATOM     29  C14 ZIN A   1      11.243  16.888 -19.912  0.00  0.00     0.020 A 
ENDBRANCH  23  24
ENDBRANCH  22  23
BRANCH  22  30
ATOM     30  N19 ZIN A   1      10.009  13.924 -18.772  0.00  0.00    -0.700 N 
ATOM     31  C20 ZIN A   1       8.754  14.201 -19.179  0.00  0.00     0.640 C 
ATOM     32  O21 ZIN A   1       8.563  14.662 -20.286  0.00  0.00    -0.550 OA
ATOM     33  H63 ZIN A   1      10.161  13.555 -17.887  0.00  0.00     0.410 HD
BRANCH  31  34
ATOM     34  O22 ZIN A   1       7.713  13.966 -18.358  0.00  0.00    -0.350 OA
BRANCH  34  35
ATOM     35  C23 ZIN A   1       8.025  13.565 -16.997  0.00  0.00     0.200 C 
ATOM     36  C32 ZIN A   1       7.535  12.128 -16.730  0.00  0.00    -0.030 C 
ATOM     37  C27 ZIN A   1       6.401  12.300 -15.677  0.00  0.00     0.340 C 
ATOM     38  C31 ZIN A   1       6.718  11.613 -17.972  0.00  0.00     0.050 C 
ATOM     39  O26 ZIN A   1       6.011  13.688 -15.769  0.00  0.00    -0.370 OA
ATOM     40  O29 ZIN A   1       5.288  11.494 -16.089  0.00  0.00    -0.360 OA
ATOM     41  C25 ZIN A   1       7.233  14.425 -15.985  0.00  0.00     0.220 C 
ATOM     42  C30 ZIN A   1       5.630  10.757 -17.273  0.00  0.00     0.210 C 
ENDBRANCH  34  35
ENDBRANCH  31  34
ENDBRANCH  22  30
ENDBRANCH   1  22
TORSDOF 14
ENDMDL
MODEL 4
REMARK VINA RESULT:      -6.4      3.988      6.375
REMARK  14 active torsions:
REMARK  status: ('A' for Active; 'I' for Inactive)
REMARK    1  A    between atoms: C2_2  and  C4_4 
REMARK    2  A    between atoms: C4_4  and  N5_5 
REMARK    3  A    between atoms: N5_5  and  C6_6 
REMARK    4  A    between atoms: N5_5  and  S34_29 
REMARK    5  A    between atoms: C6_6  and  C7_7 
REMARK    6  A    between atoms: C7_7  and  O9_8 
REMARK    7  A    between atoms: C7_7  and  C10_9 
REMARK    8  A    between atoms: C10_9  and  C12_10 
REMARK    9  A    between atoms: C10_9  and  N19_17 
REMARK   10  A    between atoms: C12_10  and  C13_11 
REMARK       I    between atoms: N19_17  and  C20_18 
REMARK   11  A    between atoms: C20_18  and  O22_20 
REMARK   12  A    between atoms: O22_20  and  C23_21 
REMARK   13  A    between atoms: S34_29  and  C37_32 
REMARK   14  A    between atoms: C40_35  and  N41_36 
ROOT
ATOM      1  C7  ZIN A   1       9.256  17.073 -14.884  0.00  0.00     0.190 C 
ENDROOT
BRANCH   1   2
ATOM      2  C6  ZIN A   1       9.488  15.894 -15.832  0.00  0.00     0.280 C 
BRANCH   2   3
ATOM      3  N5  ZIN A   1       9.454  16.369 -17.219  0.00  0.00    -0.990 N 
BRANCH   3   4
ATOM      4  C4  ZIN A   1      10.323  17.470 -17.637  0.00  0.00     0.310 C 
BRANCH   4   5
ATOM      5  C2  ZIN A   1      11.683  16.912 -18.064  0.00  0.00    -0.050 C 
ATOM      6  C1  ZIN A   1      11.951  17.279 -19.524  0.00  0.00     0.030 C 
ATOM      7  C3  ZIN A   1      12.779  17.509 -17.178  0.00  0.00     0.020 C 
ENDBRANCH   4   5
ENDBRANCH   3   4
BRANCH   3   8
ATOM      8  S34 ZIN A   1       8.431  15.659 -18.310  0.00  0.00     2.700 S 
ATOM      9  O35 ZIN A   1       7.404  15.035 -17.552  0.00  0.00    -0.950 OA
ATOM     10  O36 ZIN A   1       8.175  16.634 -19.312  0.00  0.00    -0.960 OA
BRANCH   8  11
ATOM     11  C37 ZIN A   1       9.327  14.362 -19.098  0.00  0.00    -0.740 A 
ATOM     12  C43 ZIN A   1       9.659  13.222 -18.387  0.00  0.00     0.170 A 
ATOM     13  C42 ZIN A   1      10.356  12.201 -19.002  0.00  0.00    -0.090 A 
ATOM     14  C40 ZIN A   1      10.734  12.324 -20.333  0.00  0.00     0.270 A 
ATOM     15  C39 ZIN A   1      10.403  13.472 -21.042  0.00  0.00    -0.090 A 
ATOM     16  C38 ZIN A   1       9.701  14.487 -20.422  0.00  0.00     0.170 A 
BRANCH  14  17
ATOM     17  N41 ZIN A   1      11.445  11.296 -20.956  0.00  0.00    -0.870 N 
ATOM     18  H72 ZIN A   1      11.158  10.964 -21.822  0.00  0.00     0.400 HD
ATOM     19  H73 ZIN A   1      12.224  10.914 -20.524  0.00  0.00     0.400 HD
ENDBRANCH  14  17
ENDBRANCH   8  11
ENDBRANCH   3   8
ENDBRANCH   2   3
ENDBRANCH   1   2
BRANCH   1  20
ATOM     20  O9  ZIN A   1       7.878  17.118 -14.509  0.00  0.00    -0.550 OA
ATOM     21  H55 ZIN A   1       7.452  17.971 -14.676  0.00  0.00     0.390 HD
ENDBRANCH   1  20
BRANCH   1  22
ATOM     22  C10 ZIN A   1      10.120  16.899 -13.635  0.00  0.00     0.240 C 
BRANCH  22  23
ATOM     23  C12 ZIN A   1      11.391  16.127 -13.997  0.00  0.00     0.060 C 
BRANCH  23  24
ATOM     24  C13 ZIN A   1      12.599  16.917 -13.562  0.00  0.00    -0.060 A 
ATOM     25  C18 ZIN A   1      12.473  18.259 -13.256  0.00  0.00     0.000 A 
ATOM     26  C17 ZIN A   1      13.581  18.982 -12.851  0.00  0.00    -0.010 A 
ATOM     27  C16 ZIN A   1      14.814  18.365 -12.762  0.00  0.00     0.000 A 
ATOM     28  C15 ZIN A   1      14.941  17.024 -13.073  0.00  0.00     0.010 A 
ATOM     29  C14 ZIN A   1      13.834  16.300 -13.473  0.00  0.00     0.020 A 
ENDBRANCH  23  24
ENDBRANCH  22  23
BRANCH  22  30
ATOM     30  N19 ZIN A   1       9.369  16.154 -12.621  0.00  0.00    -0.700 N 
ATOM     31  C20 ZIN A   1       9.197  16.676 -11.390  0.00  0.00     0.640 C 
ATOM     32  O21 ZIN A   1       9.665  17.764 -11.121  0.00  0.00    -0.550 OA
ATOM     33  H63 ZIN A   1       8.995  15.285 -12.836  0.00  0.00     0.410 HD
BRANCH  31  34
ATOM     34  O22 ZIN A   1       8.506  15.991 -10.460  0.00  0.00    -0.350 OA
BRANCH  34  35
ATOM     35  C23 ZIN A   1       9.028  14.691 -10.076  0.00  0.00     0.200 C 
ATOM     36  C32 ZIN A   1       7.976  13.901  -9.274  0.00  0.00    -0.030 C 
ATOM     37  C27 ZIN A   1       8.587  13.789  -7.845  0.00  0.00     0.340 C 
ATOM     38  C31 ZIN A   1       6.728  14.817  -8.997  0.00  0.00     0.050 C 
ATOM     39  O26 ZIN A   1       9.590  14.827  -7.786  0.00  0.00    -0.370 OA
ATOM     40  O29 ZIN A   1       7.558  14.106  -6.898  0.00  0.00    -0.360 OA
ATOM     41  C25 ZIN A   1      10.208  14.851  -9.090  0.00  0.00     0.220 C 
ATOM     42  C30 ZIN A   1       6.316  14.336  -7.582  0.00  0.00     0.210 C 
ENDBRANCH  34  35
ENDBRANCH  31  34
ENDBRANCH  22  30
ENDBRANCH   1  22
TORSDOF 14
ENDMDL
MODEL 5
REMARK VINA RESULT:      -6.4      8.257     11.013
REMARK  14 active torsions:
REMARK  status: ('A' for Active; 'I' for Inactive)
REMARK    1  A    between atoms: C2_2  and  C4_4 
REMARK    2  A    between atoms: C4_4  and  N5_5 
REMARK    3  A    between atoms: N5_5  and  C6_6 
REMARK    4  A    between atoms: N5_5  and  S34_29 
REMARK    5  A    between atoms: C6_6  and  C7_7 
REMARK    6  A    between atoms: C7_7  and  O9_8 
REMARK    7  A    between atoms: C7_7  and  C10_9 
REMARK    8  A    between atoms: C10_9  and  C12_10 
REMARK    9  A    between atoms: C10_9  and  N19_17 
REMARK   10  A    between atoms: C12_10  and  C13_11 
REMARK       I    between atoms: N19_17  and  C20_18 
REMARK   11  A    between atoms: C20_18  and  O22_20 
REMARK   12  A    between atoms: O22_20  and  C23_21 
REMARK   13  A    between atoms: S34_29  and  C37_32 
REMARK   14  A    between atoms: C40_35  and  N41_36 
ROOT
ATOM      1  C7  ZIN A   1       9.368  13.376  -9.700  0.00  0.00     0.190 C 
ENDROOT
BRANCH   1   2
ATOM      2  C6  ZIN A   1       8.672  12.179  -9.047  0.00  0.00     0.280 C 
BRANCH   2   3
ATOM      3  N5  ZIN A   1       9.117  12.056  -7.656  0.00  0.00    -0.990 N 
BRANCH   3   4
ATOM      4  C4  ZIN A   1      10.358  11.344  -7.344  0.00  0.00     0.310 C 
BRANCH   4   5
ATOM      5  C2  ZIN A   1      10.141   9.839  -7.519  0.00  0.00    -0.050 C 
ATOM      6  C1  ZIN A   1      11.117   9.300  -8.565  0.00  0.00     0.030 C 
ATOM      7  C3  ZIN A   1      10.383   9.132  -6.184  0.00  0.00     0.020 C 
ENDBRANCH   4   5
ENDBRANCH   3   4
BRANCH   3   8
ATOM      8  S34 ZIN A   1       8.217  12.724  -6.437  0.00  0.00     2.700 S 
ATOM      9  O35 ZIN A   1       8.598  12.054  -5.243  0.00  0.00    -0.950 OA
ATOM     10  O36 ZIN A   1       8.304  14.133  -6.600  0.00  0.00    -0.960 OA
BRANCH   8  11
ATOM     11  C37 ZIN A   1       6.534  12.293  -6.734  0.00  0.00    -0.740 A 
ATOM     12  C43 ZIN A   1       6.140  10.968  -6.674  0.00  0.00     0.170 A 
ATOM     13  C42 ZIN A   1       4.822  10.627  -6.902  0.00  0.00    -0.090 A 
ATOM     14  C40 ZIN A   1       3.893  11.615  -7.203  0.00  0.00     0.270 A 
ATOM     15  C39 ZIN A   1       4.293  12.943  -7.268  0.00  0.00    -0.090 A 
ATOM     16  C38 ZIN A   1       5.612  13.278  -7.034  0.00  0.00     0.170 A 
BRANCH  14  17
ATOM     17  N41 ZIN A   1       2.559  11.273  -7.439  0.00  0.00    -0.870 N 
ATOM     18  H72 ZIN A   1       2.125  11.552  -8.260  0.00  0.00     0.400 HD
ATOM     19  H73 ZIN A   1       2.069  10.755  -6.783  0.00  0.00     0.400 HD
ENDBRANCH  14  17
ENDBRANCH   8  11
ENDBRANCH   3   8
ENDBRANCH   2   3
ENDBRANCH   1   2
BRANCH   1  20
ATOM     20  O9  ZIN A   1      10.343  12.908 -10.634  0.00  0.00    -0.550 OA
ATOM     21  H55 ZIN A   1      10.024  12.863 -11.547  0.00  0.00     0.390 HD
ENDBRANCH   1  20
BRANCH   1  22
ATOM     22  C10 ZIN A   1       8.331  14.232 -10.429  0.00  0.00     0.240 C 
BRANCH  22  23
ATOM     23  C12 ZIN A   1       8.129  15.545  -9.670  0.00  0.00     0.060 C 
BRANCH  23  24
ATOM     24  C13 ZIN A   1       8.987  16.619 -10.288  0.00  0.00    -0.060 A 
ATOM     25  C18 ZIN A   1       9.192  16.639 -11.654  0.00  0.00     0.000 A 
ATOM     26  C17 ZIN A   1       9.975  17.627 -12.221  0.00  0.00    -0.010 A 
ATOM     27  C16 ZIN A   1      10.560  18.589 -11.421  0.00  0.00     0.000 A 
ATOM     28  C15 ZIN A   1      10.360  18.567 -10.053  0.00  0.00     0.010 A 
ATOM     29  C14 ZIN A   1       9.574  17.581  -9.486  0.00  0.00     0.020 A 
ENDBRANCH  23  24
ENDBRANCH  22  23
BRANCH  22  30
ATOM     30  N19 ZIN A   1       7.060  13.507 -10.496  0.00  0.00    -0.700 N 
ATOM     31  C20 ZIN A   1       6.289  13.598 -11.599  0.00  0.00     0.640 C 
ATOM     32  O21 ZIN A   1       6.648  14.281 -12.536  0.00  0.00    -0.550 OA
ATOM     33  H63 ZIN A   1       6.773  12.959  -9.748  0.00  0.00     0.410 HD
BRANCH  31  34
ATOM     34  O22 ZIN A   1       5.121  12.931 -11.660  0.00  0.00    -0.350 OA
BRANCH  34  35
ATOM     35  C23 ZIN A   1       4.959  11.984 -12.749  0.00  0.00     0.200 C 
ATOM     36  C32 ZIN A   1       3.748  11.066 -12.494  0.00  0.00    -0.030 C 
ATOM     37  C27 ZIN A   1       4.373   9.655 -12.289  0.00  0.00     0.340 C 
ATOM     38  C31 ZIN A   1       3.167  11.350 -11.060  0.00  0.00     0.050 C 
ATOM     39  O26 ZIN A   1       5.761   9.902 -11.974  0.00  0.00    -0.370 OA
ATOM     40  O29 ZIN A   1       3.752   9.058 -11.142  0.00  0.00    -0.360 OA
ATOM     41  C25 ZIN A   1       6.160  11.012 -12.806  0.00  0.00     0.220 C 
ATOM     42  C30 ZIN A   1       2.727   9.926 -10.633  0.00  0.00     0.210 C 
ENDBRANCH  34  35
ENDBRANCH  31  34
ENDBRANCH  22  30
ENDBRANCH   1  22
TORSDOF 14
ENDMDL
MODEL 6
REMARK VINA RESULT:      -6.4      3.444      5.779
REMARK  14 active torsions:
REMARK  status: ('A' for Active; 'I' for Inactive)
REMARK    1  A    between atoms: C2_2  and  C4_4 
REMARK    2  A    between atoms: C4_4  and  N5_5 
REMARK    3  A    between atoms: N5_5  and  C6_6 
REMARK    4  A    between atoms: N5_5  and  S34_29 
REMARK    5  A    between atoms: C6_6  and  C7_7 
REMARK    6  A    between atoms: C7_7  and  O9_8 
REMARK    7  A    between atoms: C7_7  and  C10_9 
REMARK    8  A    between atoms: C10_9  and  C12_10 
REMARK    9  A    between atoms: C10_9  and  N19_17 
REMARK   10  A    between atoms: C12_10  and  C13_11 
REMARK       I    between atoms: N19_17  and  C20_18 
REMARK   11  A    between atoms: C20_18  and  O22_20 
REMARK   12  A    between atoms: O22_20  and  C23_21 
REMARK   13  A    between atoms: S34_29  and  C37_32 
REMARK   14  A    between atoms: C40_35  and  N41_36 
ROOT
ATOM      1  C7  ZIN A   1      10.514  14.281 -16.334  0.00  0.00     0.190 C 
ENDROOT
BRANCH   1   2
ATOM      2  C6  ZIN A   1       9.323  14.706 -17.197  0.00  0.00     0.280 C 
BRANCH   2   3
ATOM      3  N5  ZIN A   1       9.286  13.889 -18.413  0.00  0.00    -0.990 N 
BRANCH   3   4
ATOM      4  C4  ZIN A   1       9.083  12.441 -18.316  0.00  0.00     0.310 C 
BRANCH   4   5
ATOM      5  C2  ZIN A   1       7.826  12.156 -17.491  0.00  0.00    -0.050 C 
ATOM      6  C1  ZIN A   1       6.642  11.916 -18.430  0.00  0.00     0.030 C 
ATOM      7  C3  ZIN A   1       8.054  10.913 -16.630  0.00  0.00     0.020 C 
ENDBRANCH   4   5
ENDBRANCH   3   4
BRANCH   3   8
ATOM      8  S34 ZIN A   1       9.472  14.602 -19.895  0.00  0.00     2.700 S 
ATOM      9  O35 ZIN A   1      10.465  13.852 -20.580  0.00  0.00    -0.950 OA
ATOM     10  O36 ZIN A   1       8.163  14.809 -20.407  0.00  0.00    -0.960 OA
BRANCH   8  11
ATOM     11  C37 ZIN A   1      10.157  16.202 -19.622  0.00  0.00    -0.740 A 
ATOM     12  C43 ZIN A   1      11.530  16.369 -19.594  0.00  0.00     0.170 A 
ATOM     13  C42 ZIN A   1      12.071  17.623 -19.385  0.00  0.00    -0.090 A 
ATOM     14  C40 ZIN A   1      11.235  18.715 -19.192  0.00  0.00     0.270 A 
ATOM     15  C39 ZIN A   1       9.856  18.542 -19.216  0.00  0.00    -0.090 A 
ATOM     16  C38 ZIN A   1       9.322  17.287 -19.431  0.00  0.00     0.170 A 
BRANCH  14  17
ATOM     17  N41 ZIN A   1      11.778  19.983 -18.975  0.00  0.00    -0.870 N 
ATOM     18  H72 ZIN A   1      11.879  20.319 -18.071  0.00  0.00     0.400 HD
ATOM     19  H73 ZIN A   1      12.056  20.526 -19.729  0.00  0.00     0.400 HD
ENDBRANCH  14  17
ENDBRANCH   8  11
ENDBRANCH   3   8
ENDBRANCH   2   3
ENDBRANCH   1   2
BRANCH   1  20
ATOM     20  O9  ZIN A   1      11.629  13.979 -17.177  0.00  0.00    -0.550 OA
ATOM     21  H55 ZIN A   1      11.422  13.371 -17.900  0.00  0.00     0.390 HD
ENDBRANCH   1  20
BRANCH   1  22
ATOM     22  C10 ZIN A   1      10.886  15.419 -15.383  0.00  0.00     0.240 C 
BRANCH  22  23
ATOM     23  C12 ZIN A   1      12.265  15.968 -15.758  0.00  0.00     0.060 C 
BRANCH  23  24
ATOM     24  C13 ZIN A   1      12.243  17.473 -15.682  0.00  0.00    -0.060 A 
ATOM     25  C18 ZIN A   1      13.428  18.184 -15.723  0.00  0.00     0.000 A 
ATOM     26  C17 ZIN A   1      13.407  19.565 -15.659  0.00  0.00    -0.010 A 
ATOM     27  C16 ZIN A   1      12.203  20.233 -15.544  0.00  0.00     0.000 A 
ATOM     28  C15 ZIN A   1      11.018  19.522 -15.498  0.00  0.00     0.010 A 
ATOM     29  C14 ZIN A   1      11.038  18.142 -15.566  0.00  0.00     0.020 A 
ENDBRANCH  23  24
ENDBRANCH  22  23
BRANCH  22  30
ATOM     30  N19 ZIN A   1      10.919  14.916 -14.008  0.00  0.00    -0.700 N 
ATOM     31  C20 ZIN A   1       9.935  15.243 -13.146  0.00  0.00     0.640 C 
ATOM     32  O21 ZIN A   1       9.022  15.956 -13.509  0.00  0.00    -0.550 OA
ATOM     33  H63 ZIN A   1      11.648  14.345 -13.717  0.00  0.00     0.410 HD
BRANCH  31  34
ATOM     34  O22 ZIN A   1       9.966  14.780 -11.883  0.00  0.00    -0.350 OA
BRANCH  34  35
ATOM     35  C23 ZIN A   1       8.781  14.997 -11.072  0.00  0.00     0.200 C 
ATOM     36  C32 ZIN A   1       9.129  15.816  -9.813  0.00  0.00    -0.030 C 
ATOM     37  C27 ZIN A   1       8.900  14.823  -8.635  0.00  0.00     0.340 C 
ATOM     38  C31 ZIN A   1      10.686  16.022  -9.734  0.00  0.00     0.050 C 
ATOM     39  O26 ZIN A   1       8.922  13.512  -9.240  0.00  0.00    -0.370 OA
ATOM     40  O29 ZIN A   1      10.020  14.925  -7.745  0.00  0.00    -0.360 OA
ATOM     41  C25 ZIN A   1       8.254  13.655 -10.512  0.00  0.00     0.220 C 
ATOM     42  C30 ZIN A   1      10.916  15.950  -8.202  0.00  0.00     0.210 C 
ENDBRANCH  34  35
ENDBRANCH  31  34
ENDBRANCH  22  30
ENDBRANCH   1  22
TORSDOF 14
ENDMDL
MODEL 7
REMARK VINA RESULT:      -6.3      2.959      5.735
REMARK  14 active torsions:
REMARK  status: ('A' for Active; 'I' for Inactive)
REMARK    1  A    between atoms: C2_2  and  C4_4 
REMARK    2  A    between atoms: C4_4  and  N5_5 
REMARK    3  A    between atoms: N5_5  and  C6_6 
REMARK    4  A    between atoms: N5_5  and  S34_29 
REMARK    5  A    between atoms: C6_6  and  C7_7 
REMARK    6  A    between atoms: C7_7  and  O9_8 
REMARK    7  A    between atoms: C7_7  and  C10_9 
REMARK    8  A    between atoms: C10_9  and  C12_10 
REMARK    9  A    between atoms: C10_9  and  N19_17 
REMARK   10  A    between atoms: C12_10  and  C13_11 
REMARK       I    between atoms: N19_17  and  C20_18 
REMARK   11  A    between atoms: C20_18  and  O22_20 
REMARK   12  A    between atoms: O22_20  and  C23_21 
REMARK   13  A    between atoms: S34_29  and  C37_32 
REMARK   14  A    between atoms: C40_35  and  N41_36 
ROOT
ATOM      1  C7  ZIN A   1       8.869  12.951 -16.814  0.00  0.00     0.190 C 
ENDROOT
BRANCH   1   2
ATOM      2  C6  ZIN A   1      10.038  13.786 -17.343  0.00  0.00     0.280 C 
BRANCH   2   3
ATOM      3  N5  ZIN A   1      10.272  13.459 -18.752  0.00  0.00    -0.990 N 
BRANCH   3   4
ATOM      4  C4  ZIN A   1      11.075  12.287 -19.108  0.00  0.00     0.310 C 
BRANCH   4   5
ATOM      5  C2  ZIN A   1      12.456  12.741 -19.585  0.00  0.00    -0.050 C 
ATOM      6  C1  ZIN A   1      13.422  12.772 -18.399  0.00  0.00     0.030 C 
ATOM      7  C3  ZIN A   1      12.977  11.764 -20.641  0.00  0.00     0.020 C 
ENDBRANCH   4   5
ENDBRANCH   3   4
BRANCH   3   8
ATOM      8  S34 ZIN A   1       9.627  14.414 -19.941  0.00  0.00     2.700 S 
ATOM      9  O35 ZIN A   1      10.244  14.013 -21.157  0.00  0.00    -0.950 OA
ATOM     10  O36 ZIN A   1       8.220  14.405 -19.743  0.00  0.00    -0.960 OA
BRANCH   8  11
ATOM     11  C37 ZIN A   1      10.162  16.064 -19.632  0.00  0.00    -0.740 A 
ATOM     12  C43 ZIN A   1       9.229  17.059 -19.398  0.00  0.00     0.170 A 
ATOM     13  C42 ZIN A   1       9.645  18.353 -19.151  0.00  0.00    -0.090 A 
ATOM     14  C40 ZIN A   1      11.000  18.657 -19.149  0.00  0.00     0.270 A 
ATOM     15  C39 ZIN A   1      11.933  17.657 -19.391  0.00  0.00    -0.090 A 
ATOM     16  C38 ZIN A   1      11.511  16.364 -19.632  0.00  0.00     0.170 A 
BRANCH  14  17
ATOM     17  N41 ZIN A   1      11.423  19.966 -18.905  0.00  0.00    -0.870 N 
ATOM     18  H72 ZIN A   1      10.775  20.687 -18.877  0.00  0.00     0.400 HD
ATOM     19  H73 ZIN A   1      12.363  20.152 -18.763  0.00  0.00     0.400 HD
ENDBRANCH  14  17
ENDBRANCH   8  11
ENDBRANCH   3   8
ENDBRANCH   2   3
ENDBRANCH   1   2
BRANCH   1  20
ATOM     20  O9  ZIN A   1       9.373  11.887 -16.002  0.00  0.00    -0.550 OA
ATOM     21  H55 ZIN A   1      10.338  11.825 -15.991  0.00  0.00     0.390 HD
ENDBRANCH   1  20
BRANCH   1  22
ATOM     22  C10 ZIN A   1       7.947  13.838 -15.977  0.00  0.00     0.240 C 
BRANCH  22  23
ATOM     23  C12 ZIN A   1       6.611  14.015 -16.704  0.00  0.00     0.060 C 
BRANCH  23  24
ATOM     24  C13 ZIN A   1       5.564  13.156 -16.044  0.00  0.00    -0.060 A 
ATOM     25  C18 ZIN A   1       5.651  12.875 -14.694  0.00  0.00     0.000 A 
ATOM     26  C17 ZIN A   1       4.687  12.091 -14.087  0.00  0.00    -0.010 A 
ATOM     27  C16 ZIN A   1       3.640  11.583 -14.833  0.00  0.00     0.000 A 
ATOM     28  C15 ZIN A   1       3.555  11.861 -16.185  0.00  0.00     0.010 A 
ATOM     29  C14 ZIN A   1       4.517  12.647 -16.790  0.00  0.00     0.020 A 
ENDBRANCH  23  24
ENDBRANCH  22  23
BRANCH  22  30
ATOM     30  N19 ZIN A   1       8.574  15.148 -15.784  0.00  0.00    -0.700 N 
ATOM     31  C20 ZIN A   1       8.557  15.731 -14.568  0.00  0.00     0.640 C 
ATOM     32  O21 ZIN A   1       8.022  15.170 -13.633  0.00  0.00    -0.550 OA
ATOM     33  H63 ZIN A   1       9.002  15.597 -16.530  0.00  0.00     0.410 HD
BRANCH  31  34
ATOM     34  O22 ZIN A   1       9.134  16.934 -14.391  0.00  0.00    -0.350 OA
BRANCH  34  35
ATOM     35  C23 ZIN A   1      10.578  17.000 -14.528  0.00  0.00     0.200 C 
ATOM     36  C32 ZIN A   1      11.228  17.456 -13.207  0.00  0.00    -0.030 C 
ATOM     37  C27 ZIN A   1      11.833  18.852 -13.540  0.00  0.00     0.340 C 
ATOM     38  C31 ZIN A   1      10.106  17.852 -12.179  0.00  0.00     0.050 C 
ATOM     39  O26 ZIN A   1      11.144  19.284 -14.735  0.00  0.00    -0.370 OA
ATOM     40  O29 ZIN A   1      11.490  19.749 -12.476  0.00  0.00    -0.360 OA
ATOM     41  C25 ZIN A   1      10.976  18.098 -15.541  0.00  0.00     0.220 C 
ATOM     42  C30 ZIN A   1      10.782  19.040 -11.446  0.00  0.00     0.210 C 
ENDBRANCH  34  35
ENDBRANCH  31  34
ENDBRANCH  22  30
ENDBRANCH   1  22
TORSDOF 14
ENDMDL
MODEL 8
REMARK VINA RESULT:      -6.3     10.016     12.620
REMARK  14 active torsions:
REMARK  status: ('A' for Active; 'I' for Inactive)
REMARK    1  A    between atoms: C2_2  and  C4_4 
REMARK    2  A    between atoms: C4_4  and  N5_5 
REMARK    3  A    between atoms: N5_5  and  C6_6 
REMARK    4  A    between atoms: N5_5  and  S34_29 
REMARK    5  A    between atoms: C6_6  and  C7_7 
REMARK    6  A    between atoms: C7_7  and  O9_8 
REMARK    7  A    between atoms: C7_7  and  C10_9 
REMARK    8  A    between atoms: C10_9  and  C12_10 
REMARK    9  A    between atoms: C10_9  and  N19_17 
REMARK   10  A    between atoms: C12_10  and  C13_11 
REMARK       I    between atoms: N19_17  and  C20_18 
REMARK   11  A    between atoms: C20_18  and  O22_20 
REMARK   12  A    between atoms: O22_20  and  C23_21 
REMARK   13  A    between atoms: S34_29  and  C37_32 
REMARK   14  A    between atoms: C40_35  and  N41_36 
ROOT
ATOM      1  C7  ZIN A   1       4.747  12.077 -10.637  0.00  0.00     0.190 C 
ENDROOT
BRANCH   1   2
ATOM      2  C6  ZIN A   1       5.856  12.059  -9.582  0.00  0.00     0.280 C 
BRANCH   2   3
ATOM      3  N5  ZIN A   1       5.385  12.728  -8.367  0.00  0.00    -0.990 N 
BRANCH   3   4
ATOM      4  C4  ZIN A   1       4.094  12.360  -7.782  0.00  0.00     0.310 C 
BRANCH   4   5
ATOM      5  C2  ZIN A   1       4.096  10.869  -7.436  0.00  0.00    -0.050 C 
ATOM      6  C1  ZIN A   1       4.339  10.694  -5.936  0.00  0.00     0.030 C 
ATOM      7  C3  ZIN A   1       2.745  10.257  -7.809  0.00  0.00     0.020 C 
ENDBRANCH   4   5
ENDBRANCH   3   4
BRANCH   3   8
ATOM      8  S34 ZIN A   1       6.313  13.899  -7.654  0.00  0.00     2.700 S 
ATOM      9  O35 ZIN A   1       6.730  14.771  -8.696  0.00  0.00    -0.950 OA
ATOM     10  O36 ZIN A   1       5.593  14.341  -6.512  0.00  0.00    -0.960 OA
BRANCH   8  11
ATOM     11  C37 ZIN A   1       7.770  13.114  -7.049  0.00  0.00    -0.740 A 
ATOM     12  C43 ZIN A   1       8.956  13.226  -7.753  0.00  0.00     0.170 A 
ATOM     13  C42 ZIN A   1      10.102  12.616  -7.280  0.00  0.00    -0.090 A 
ATOM     14  C40 ZIN A   1      10.060  11.881  -6.102  0.00  0.00     0.270 A 
ATOM     15  C39 ZIN A   1       8.866  11.768  -5.401  0.00  0.00    -0.090 A 
ATOM     16  C38 ZIN A   1       7.726  12.384  -5.877  0.00  0.00     0.170 A 
BRANCH  14  17
ATOM     17  N41 ZIN A   1      11.215  11.259  -5.623  0.00  0.00    -0.870 N 
ATOM     18  H72 ZIN A   1      11.956  11.084  -6.225  0.00  0.00     0.400 HD
ATOM     19  H73 ZIN A   1      11.276  11.003  -4.690  0.00  0.00     0.400 HD
ENDBRANCH  14  17
ENDBRANCH   8  11
ENDBRANCH   3   8
ENDBRANCH   2   3
ENDBRANCH   1   2
BRANCH   1  20
ATOM     20  O9  ZIN A   1       4.841  13.278 -11.406  0.00  0.00    -0.550 OA
ATOM     21  H55 ZIN A   1       5.722  13.677 -11.407  0.00  0.00     0.390 HD
ENDBRANCH   1  20
BRANCH   1  22
ATOM     22  C10 ZIN A   1       4.900  10.867 -11.559  0.00  0.00     0.240 C 
BRANCH  22  23
ATOM     23  C12 ZIN A   1       4.208  11.151 -12.894  0.00  0.00     0.060 C 
BRANCH  23  24
ATOM     24  C13 ZIN A   1       5.109  10.729 -14.026  0.00  0.00    -0.060 A 
ATOM     25  C18 ZIN A   1       6.457  10.525 -13.797  0.00  0.00     0.000 A 
ATOM     26  C17 ZIN A   1       7.282  10.133 -14.835  0.00  0.00    -0.010 A 
ATOM     27  C16 ZIN A   1       6.761   9.953 -16.102  0.00  0.00     0.000 A 
ATOM     28  C15 ZIN A   1       5.413  10.162 -16.332  0.00  0.00     0.010 A 
ATOM     29  C14 ZIN A   1       4.588  10.550 -15.294  0.00  0.00     0.020 A 
ENDBRANCH  23  24
ENDBRANCH  22  23
BRANCH  22  30
ATOM     30  N19 ZIN A   1       4.287   9.694 -10.931  0.00  0.00    -0.700 N 
ATOM     31  C20 ZIN A   1       5.048   8.634 -10.593  0.00  0.00     0.640 C 
ATOM     32  O21 ZIN A   1       6.243   8.651 -10.809  0.00  0.00    -0.550 OA
ATOM     33  H63 ZIN A   1       3.332   9.680 -10.757  0.00  0.00     0.410 HD
BRANCH  31  34
ATOM     34  O22 ZIN A   1       4.484   7.557 -10.016  0.00  0.00    -0.350 OA
BRANCH  34  35
ATOM     35  C23 ZIN A   1       3.109   7.261 -10.376  0.00  0.00     0.200 C 
ATOM     36  C32 ZIN A   1       2.318   6.775  -9.145  0.00  0.00    -0.030 C 
ATOM     37  C27 ZIN A   1       1.987   5.288  -9.465  0.00  0.00     0.340 C 
ATOM     38  C31 ZIN A   1       3.296   6.610  -7.925  0.00  0.00     0.050 C 
ATOM     39  O26 ZIN A   1       2.922   4.909 -10.499  0.00  0.00    -0.370 OA
ATOM     40  O29 ZIN A   1       2.272   4.509  -8.295  0.00  0.00    -0.360 OA
ATOM     41  C25 ZIN A   1       3.050   6.065 -11.354  0.00  0.00     0.220 C 
ATOM     42  C30 ZIN A   1       2.685   5.370  -7.222  0.00  0.00     0.210 C 
ENDBRANCH  34  35
ENDBRANCH  31  34
ENDBRANCH  22  30
ENDBRANCH   1  22
TORSDOF 14
ENDMDL
MODEL 9
REMARK VINA RESULT:      -6.2      8.654     11.472
REMARK  14 active torsions:
REMARK  status: ('A' for Active; 'I' for Inactive)
REMARK    1  A    between atoms: C2_2  and  C4_4 
REMARK    2  A    between atoms: C4_4  and  N5_5 
REMARK    3  A    between atoms: N5_5  and  C6_6 
REMARK    4  A    between atoms: N5_5  and  S34_29 
REMARK    5  A    between atoms: C6_6  and  C7_7 
REMARK    6  A    between atoms: C7_7  and  O9_8 
REMARK    7  A    between atoms: C7_7  and  C10_9 
REMARK    8  A    between atoms: C10_9  and  C12_10 
REMARK    9  A    between atoms: C10_9  and  N19_17 
REMARK   10  A    between atoms: C12_10  and  C13_11 
REMARK       I    between atoms: N19_17  and  C20_18 
REMARK   11  A    between atoms: C20_18  and  O22_20 
REMARK   12  A    between atoms: O22_20  and  C23_21 
REMARK   13  A    between atoms: S34_29  and  C37_32 
REMARK   14  A    between atoms: C40_35  and  N41_36 
ROOT
ATOM      1  C7  ZIN A   1       8.033  13.460  -6.821  0.00  0.00     0.190 C 
ENDROOT
BRANCH   1   2
ATOM      2  C6  ZIN A   1       9.304  13.616  -7.660  0.00  0.00     0.280 C 
BRANCH   2   3
ATOM      3  N5  ZIN A   1       9.901  12.297  -7.890  0.00  0.00    -0.990 N 
BRANCH   3   4
ATOM      4  C4  ZIN A   1       9.562  11.177  -7.011  0.00  0.00     0.310 C 
BRANCH   4   5
ATOM      5  C2  ZIN A   1      10.472  11.200  -5.781  0.00  0.00    -0.050 C 
ATOM      6  C1  ZIN A   1       9.630  11.448  -4.528  0.00  0.00     0.030 C 
ATOM      7  C3  ZIN A   1      11.191   9.856  -5.654  0.00  0.00     0.020 C 
ENDBRANCH   4   5
ENDBRANCH   3   4
BRANCH   3   8
ATOM      8  S34 ZIN A   1      10.958  12.076  -9.145  0.00  0.00     2.700 S 
ATOM      9  O35 ZIN A   1      11.297  13.372  -9.619  0.00  0.00    -0.950 OA
ATOM     10  O36 ZIN A   1      11.923  11.135  -8.695  0.00  0.00    -0.960 OA
BRANCH   8  11
ATOM     11  C37 ZIN A   1      10.067  11.289 -10.446  0.00  0.00    -0.740 A 
ATOM     12  C43 ZIN A   1       9.746   9.946 -10.348  0.00  0.00     0.170 A 
ATOM     13  C42 ZIN A   1       9.043   9.327 -11.363  0.00  0.00    -0.090 A 
ATOM     14  C40 ZIN A   1       8.669  10.050 -12.488  0.00  0.00     0.270 A 
ATOM     15  C39 ZIN A   1       8.998  11.396 -12.585  0.00  0.00    -0.090 A 
ATOM     16  C38 ZIN A   1       9.696  12.011 -11.564  0.00  0.00     0.170 A 
BRANCH  14  17
ATOM     17  N41 ZIN A   1       7.963   9.426 -13.519  0.00  0.00    -0.870 N 
ATOM     18  H72 ZIN A   1       7.147   8.939 -13.322  0.00  0.00     0.400 HD
ATOM     19  H73 ZIN A   1       8.288   9.480 -14.431  0.00  0.00     0.400 HD
ENDBRANCH  14  17
ENDBRANCH   8  11
ENDBRANCH   3   8
ENDBRANCH   2   3
ENDBRANCH   1   2
BRANCH   1  20
ATOM     20  O9  ZIN A   1       8.084  14.357  -5.709  0.00  0.00    -0.550 OA
ATOM     21  H55 ZIN A   1       8.968  14.466  -5.332  0.00  0.00     0.390 HD
ENDBRANCH   1  20
BRANCH   1  22
ATOM     22  C10 ZIN A   1       6.812  13.784  -7.683  0.00  0.00     0.240 C 
BRANCH  22  23
ATOM     23  C12 ZIN A   1       5.551  13.744  -6.816  0.00  0.00     0.060 C 
BRANCH  23  24
ATOM     24  C13 ZIN A   1       4.863  12.414  -6.993  0.00  0.00    -0.060 A 
ATOM     25  C18 ZIN A   1       5.440  11.265  -6.485  0.00  0.00     0.000 A 
ATOM     26  C17 ZIN A   1       4.806  10.046  -6.642  0.00  0.00    -0.010 A 
ATOM     27  C16 ZIN A   1       3.601   9.976  -7.315  0.00  0.00     0.000 A 
ATOM     28  C15 ZIN A   1       3.026  11.125  -7.827  0.00  0.00     0.010 A 
ATOM     29  C14 ZIN A   1       3.657  12.343  -7.666  0.00  0.00     0.020 A 
ENDBRANCH  23  24
ENDBRANCH  22  23
BRANCH  22  30
ATOM     30  N19 ZIN A   1       6.696  12.795  -8.758  0.00  0.00    -0.700 N 
ATOM     31  C20 ZIN A   1       6.402  13.193 -10.012  0.00  0.00     0.640 C 
ATOM     32  O21 ZIN A   1       6.232  14.371 -10.250  0.00  0.00    -0.550 OA
ATOM     33  H63 ZIN A   1       6.833  11.853  -8.567  0.00  0.00     0.410 HD
BRANCH  31  34
ATOM     34  O22 ZIN A   1       6.297  12.283 -10.999  0.00  0.00    -0.350 OA
BRANCH  34  35
ATOM     35  C23 ZIN A   1       4.976  12.077 -11.567  0.00  0.00     0.200 C 
ATOM     36  C32 ZIN A   1       4.461  10.662 -11.239  0.00  0.00    -0.030 C 
ATOM     37  C27 ZIN A   1       4.401   9.946 -12.621  0.00  0.00     0.340 C 
ATOM     38  C31 ZIN A   1       5.596   9.841 -10.524  0.00  0.00     0.050 C 
ATOM     39  O26 ZIN A   1       5.258  10.726 -13.484  0.00  0.00    -0.370 OA
ATOM     40  O29 ZIN A   1       4.982   8.644 -12.471  0.00  0.00    -0.360 OA
ATOM     41  C25 ZIN A   1       5.041  12.104 -13.111  0.00  0.00     0.220 C 
ATOM     42  C30 ZIN A   1       5.342   8.423 -11.098  0.00  0.00     0.210 C 
ENDBRANCH  34  35
ENDBRANCH  31  34
ENDBRANCH  22  30
ENDBRANCH   1  22
TORSDOF 14
ENDMDL
