MODEL 1
REMARK VINA RESULT:      -9.0      0.000      0.000
REMARK  5 active torsions:
REMARK  status: ('A' for Active; 'I' for Inactive)
REMARK    1  A    between atoms: C2_2  and  N1_3 
REMARK    2  A    between atoms: C4_5  and  C5_6 
REMARK    3  A    between atoms: C9_11  and  O2_12 
REMARK    4  A    between atoms: O2_12  and  C10_13 
REMARK    5  A    between atoms: C10_13  and  C11_14 
ROOT
ATOM      1  N1  non d   1       9.481  16.911 -17.801  0.00  0.00    -0.356 N 
ATOM      2  C3  non d   1       9.495  17.228 -16.460  0.00  0.00     0.103 A 
ATOM      3  C4  non d   1      10.613  17.918 -16.198  0.00  0.00    -0.005 A 
ATOM      4  C23 non d   1      11.299  18.012 -17.451  0.00  0.00     0.005 A 
ATOM      5  C24 non d   1      12.488  18.611 -17.690  0.00  0.00     0.051 A 
ATOM      6  C25 non d   1      13.027  18.587 -19.043  0.00  0.00     0.069 A 
ATOM      7  O6  non d   1      14.184  19.214 -19.124  0.00  0.00    -0.356 OA
ATOM      8  C26 non d   1      15.308  19.802 -19.287  0.00  0.00     0.210 C 
ATOM      9  C27 non d   1      12.274  17.939 -19.965  0.00  0.00     0.039 A 
ATOM     10  C28 non d   1      11.073  17.334 -19.731  0.00  0.00     0.033 A 
ATOM     11  C29 non d   1      10.571  17.375 -18.415  0.00  0.00     0.045 A 
ENDROOT
BRANCH   3  12
ATOM     12  C5  non d   1      11.280  18.490 -15.020  0.00  0.00     0.055 C 
ATOM     13  C6  non d   1      10.880  18.030 -13.865  0.00  0.00     0.128 A 
ATOM     14  O1  non d   1       9.917  17.111 -13.602  0.00  0.00    -0.306 OA
ATOM     15  C22 non d   1      11.410  18.419 -12.544  0.00  0.00     0.218 A 
ATOM     16  C7  non d   1       9.781  16.880 -12.215  0.00  0.00     0.093 A 
ATOM     17  C8  non d   1       8.960  16.099 -11.467  0.00  0.00     0.075 A 
ATOM     18  C21 non d   1      10.690  17.673 -11.564  0.00  0.00     0.051 A 
ATOM     19  C9  non d   1       8.937  16.029 -10.089  0.00  0.00     0.071 A 
ATOM     20  C19 non d   1       9.892  16.883  -9.489  0.00  0.00     0.038 A 
ATOM     21  C20 non d   1      10.729  17.658 -10.189  0.00  0.00     0.021 A 
ATOM     22  O5  non d   1      12.319  19.243 -12.325  0.00  0.00    -0.284 OA
BRANCH  19  23
ATOM     23  O2  non d   1       8.110  15.274  -9.417  0.00  0.00    -0.346 OA
BRANCH  23  24
ATOM     24  C10 non d   1       6.872  15.102  -8.935  0.00  0.00     0.217 C 
BRANCH  24  25
ATOM     25  C11 non d   1       6.827  13.834  -8.165  0.00  0.00     0.002 A 
ATOM     26  C12 non d   1       7.670  13.617  -7.084  0.00  0.00     0.036 A 
ATOM     27  C13 non d   1       7.785  12.414  -6.456  0.00  0.00     0.035 A 
ATOM     28 Cl1  non d   1       8.886  12.159  -5.103  0.00  0.00    -0.084 Cl
ATOM     29  C14 non d   1       7.042  11.356  -6.901  0.00  0.00     0.036 A 
ATOM     30  C15 non d   1       6.184  11.528  -7.980  0.00  0.00     0.001 A 
ATOM     31  C16 non d   1       6.103  12.781  -8.584  0.00  0.00     0.088 A 
ATOM     32  C18 non d   1       5.359  10.383  -8.432  0.00  0.00     0.212 C 
ATOM     33  O3  non d   1       5.181  12.826  -9.649  0.00  0.00    -0.325 OA
ATOM     34  C17 non d   1       4.002  12.003  -9.370  0.00  0.00     0.345 C 
ATOM     35  O4  non d   1       4.466  10.677  -9.418  0.00  0.00    -0.362 OA
ENDBRANCH  24  25
ENDBRANCH  23  24
ENDBRANCH  19  23
ENDBRANCH   3  12
BRANCH   1  36
ATOM     36  C2  non d   1       8.415  16.148 -18.406  0.00  0.00     0.124 C 
ATOM     37  C1  non d   1       8.735  14.678 -18.460  0.00  0.00     0.027 C 
ENDBRANCH   1  36
TORSDOF 5
ENDMDL
MODEL 2
REMARK VINA RESULT:      -8.7      4.225     10.587
REMARK  5 active torsions:
REMARK  status: ('A' for Active; 'I' for Inactive)
REMARK    1  A    between atoms: C2_2  and  N1_3 
REMARK    2  A    between atoms: C4_5  and  C5_6 
REMARK    3  A    between atoms: C9_11  and  O2_12 
REMARK    4  A    between atoms: O2_12  and  C10_13 
REMARK    5  A    between atoms: C10_13  and  C11_14 
ROOT
ATOM      1  N1  non d   1       5.766  12.948  -7.516  0.00  0.00    -0.356 N 
ATOM      2  C3  non d   1       6.016  14.195  -8.046  0.00  0.00     0.103 A 
ATOM      3  C4  non d   1       7.314  14.269  -8.364  0.00  0.00    -0.005 A 
ATOM      4  C23 non d   1       7.863  12.998  -8.001  0.00  0.00     0.005 A 
ATOM      5  C24 non d   1       9.150  12.598  -8.122  0.00  0.00     0.051 A 
ATOM      6  C25 non d   1       9.513  11.258  -7.680  0.00  0.00     0.069 A 
ATOM      7  O6  non d   1      10.794  11.008  -7.865  0.00  0.00    -0.356 OA
ATOM      8  C26 non d   1      12.023  10.687  -8.011  0.00  0.00     0.210 C 
ATOM      9  C27 non d   1       8.504  10.516  -7.161  0.00  0.00     0.039 A 
ATOM     10  C28 non d   1       7.204  10.913  -7.038  0.00  0.00     0.033 A 
ATOM     11  C29 non d   1       6.878  12.212  -7.478  0.00  0.00     0.045 A 
ENDROOT
BRANCH   3  12
ATOM     12  C5  non d   1       8.244  15.281  -8.886  0.00  0.00     0.055 C 
ATOM     13  C6  non d   1       8.274  15.404 -10.186  0.00  0.00     0.128 A 
ATOM     14  O1  non d   1       7.579  14.711 -11.123  0.00  0.00    -0.306 OA
ATOM     15  C22 non d   1       9.096  16.363 -10.949  0.00  0.00     0.218 A 
ATOM     16  C7  non d   1       7.892  15.144 -12.431  0.00  0.00     0.093 A 
ATOM     17  C8  non d   1       7.498  14.754 -13.670  0.00  0.00     0.075 A 
ATOM     18  C21 non d   1       8.816  16.152 -12.332  0.00  0.00     0.051 A 
ATOM     19  C9  non d   1       7.949  15.272 -14.867  0.00  0.00     0.071 A 
ATOM     20  C19 non d   1       8.907  16.297 -14.685  0.00  0.00     0.038 A 
ATOM     21  C20 non d   1       9.314  16.720 -13.482  0.00  0.00     0.021 A 
ATOM     22  O5  non d   1       9.887  17.202 -10.475  0.00  0.00    -0.284 OA
BRANCH  19  23
ATOM     23  O2  non d   1       7.552  14.845 -16.036  0.00  0.00    -0.346 OA
BRANCH  23  24
ATOM     24  C10 non d   1       7.183  15.151 -17.287  0.00  0.00     0.217 C 
BRANCH  24  25
ATOM     25  C11 non d   1       8.399  15.415 -18.096  0.00  0.00     0.002 A 
ATOM     26  C12 non d   1       8.844  16.708 -18.328  0.00  0.00     0.036 A 
ATOM     27  C13 non d   1       9.849  17.008 -19.199  0.00  0.00     0.035 A 
ATOM     28 Cl1  non d   1      10.374  18.664 -19.497  0.00  0.00    -0.084 Cl
ATOM     29  C14 non d   1      10.457  15.996 -19.889  0.00  0.00     0.036 A 
ATOM     30  C15 non d   1      10.044  14.685 -19.687  0.00  0.00     0.001 A 
ATOM     31  C16 non d   1       9.013  14.435 -18.782  0.00  0.00     0.088 A 
ATOM     32  C18 non d   1      10.734  13.594 -20.414  0.00  0.00     0.212 C 
ATOM     33  O3  non d   1       8.708  13.065 -18.654  0.00  0.00    -0.325 OA
ATOM     34  C17 non d   1       9.916  12.239 -18.730  0.00  0.00     0.345 C 
ATOM     35  O4  non d   1      10.339  12.337 -20.066  0.00  0.00    -0.362 OA
ENDBRANCH  24  25
ENDBRANCH  23  24
ENDBRANCH  19  23
ENDBRANCH   3  12
BRANCH   1  36
ATOM     36  C2  non d   1       4.457  12.551  -7.052  0.00  0.00     0.124 C 
ATOM     37  C1  non d   1       3.675  11.834  -8.119  0.00  0.00     0.027 C 
ENDBRANCH   1  36
TORSDOF 5
ENDMDL
MODEL 3
REMARK VINA RESULT:      -8.7      4.590     12.309
REMARK  5 active torsions:
REMARK  status: ('A' for Active; 'I' for Inactive)
REMARK    1  A    between atoms: C2_2  and  N1_3 
REMARK    2  A    between atoms: C4_5  and  C5_6 
REMARK    3  A    between atoms: C9_11  and  O2_12 
REMARK    4  A    between atoms: O2_12  and  C10_13 
REMARK    5  A    between atoms: C10_13  and  C11_14 
ROOT
ATOM      1  N1  non d   1       5.644  13.236  -8.890  0.00  0.00    -0.356 N 
ATOM      2  C3  non d   1       5.916  13.004 -10.220  0.00  0.00     0.103 A 
ATOM      3  C4  non d   1       5.226  11.926 -10.613  0.00  0.00    -0.005 A 
ATOM      4  C23 non d   1       4.508  11.495  -9.452  0.00  0.00     0.005 A 
ATOM      5  C24 non d   1       3.679  10.431  -9.351  0.00  0.00     0.051 A 
ATOM      6  C25 non d   1       3.049  10.151  -8.067  0.00  0.00     0.069 A 
ATOM      7  O6  non d   1       2.266   9.092  -8.122  0.00  0.00    -0.356 OA
ATOM      8  C26 non d   1       1.489   8.077  -8.093  0.00  0.00     0.210 C 
ATOM      9  C27 non d   1       3.368  10.998  -7.059  0.00  0.00     0.039 A 
ATOM     10  C28 non d   1       4.203  12.075  -7.155  0.00  0.00     0.033 A 
ATOM     11  C29 non d   1       4.795  12.326  -8.408  0.00  0.00     0.045 A 
ENDROOT
BRANCH   3  12
ATOM     12  C5  non d   1       5.096  11.108 -11.828  0.00  0.00     0.055 C 
ATOM     13  C6  non d   1       5.527  11.661 -12.930  0.00  0.00     0.128 A 
ATOM     14  O1  non d   1       6.059  12.896 -13.111  0.00  0.00    -0.306 OA
ATOM     15  C22 non d   1       5.535  11.039 -14.268  0.00  0.00     0.218 A 
ATOM     16  C7  non d   1       6.405  13.121 -14.463  0.00  0.00     0.093 A 
ATOM     17  C8  non d   1       6.925  14.179 -15.136  0.00  0.00     0.075 A 
ATOM     18  C21 non d   1       6.089  11.992 -15.173  0.00  0.00     0.051 A 
ATOM     19  C9  non d   1       7.163  14.240 -16.495  0.00  0.00     0.071 A 
ATOM     20  C19 non d   1       6.801  13.045 -17.161  0.00  0.00     0.038 A 
ATOM     21  C20 non d   1       6.298  11.976 -16.533  0.00  0.00     0.021 A 
ATOM     22  O5  non d   1       5.133   9.894 -14.555  0.00  0.00    -0.284 OA
BRANCH  19  23
ATOM     23  O2  non d   1       7.646  15.293 -17.098  0.00  0.00    -0.346 OA
BRANCH  23  24
ATOM     24  C10 non d   1       7.618  16.095 -18.170  0.00  0.00     0.217 C 
BRANCH  24  25
ATOM     25  C11 non d   1       8.867  15.902 -18.949  0.00  0.00     0.002 A 
ATOM     26  C12 non d   1       9.103  14.729 -19.651  0.00  0.00     0.036 A 
ATOM     27  C13 non d   1      10.298  14.437 -20.237  0.00  0.00     0.035 A 
ATOM     28 Cl1  non d   1      10.580  12.926 -21.099  0.00  0.00    -0.084 Cl
ATOM     29  C14 non d   1      11.327  15.332 -20.135  0.00  0.00     0.036 A 
ATOM     30  C15 non d   1      11.134  16.520 -19.441  0.00  0.00     0.001 A 
ATOM     31  C16 non d   1       9.891  16.769 -18.863  0.00  0.00     0.088 A 
ATOM     32  C18 non d   1      12.245  17.497 -19.366  0.00  0.00     0.212 C 
ATOM     33  O3  non d   1       9.821  18.016 -18.211  0.00  0.00    -0.325 OA
ATOM     34  C17 non d   1      10.580  19.040 -18.934  0.00  0.00     0.345 C 
ATOM     35  O4  non d   1      11.927  18.679 -18.767  0.00  0.00    -0.362 OA
ENDBRANCH  24  25
ENDBRANCH  23  24
ENDBRANCH  19  23
ENDBRANCH   3  12
BRANCH   1  36
ATOM     36  C2  non d   1       6.248  14.321  -8.153  0.00  0.00     0.124 C 
ATOM     37  C1  non d   1       7.446  13.866  -7.362  0.00  0.00     0.027 C 
ENDBRANCH   1  36
TORSDOF 5
ENDMDL
MODEL 4
REMARK VINA RESULT:      -8.6      6.535     11.951
REMARK  5 active torsions:
REMARK  status: ('A' for Active; 'I' for Inactive)
REMARK    1  A    between atoms: C2_2  and  N1_3 
REMARK    2  A    between atoms: C4_5  and  C5_6 
REMARK    3  A    between atoms: C9_11  and  O2_12 
REMARK    4  A    between atoms: O2_12  and  C10_13 
REMARK    5  A    between atoms: C10_13  and  C11_14 
ROOT
ATOM      1  N1  non d   1       0.284  10.297 -16.889  0.00  0.00    -0.356 N 
ATOM      2  C3  non d   1       0.781  11.100 -15.886  0.00  0.00     0.103 A 
ATOM      3  C4  non d   1       1.846  10.496 -15.346  0.00  0.00    -0.005 A 
ATOM      4  C23 non d   1       1.986   9.267 -16.067  0.00  0.00     0.005 A 
ATOM      5  C24 non d   1       2.919   8.306 -15.872  0.00  0.00     0.051 A 
ATOM      6  C25 non d   1       2.884   7.114 -16.709  0.00  0.00     0.069 A 
ATOM      7  O6  non d   1       3.855   6.273 -16.410  0.00  0.00    -0.356 OA
ATOM      8  C26 non d   1       4.766   5.405 -16.182  0.00  0.00     0.210 C 
ATOM      9  C27 non d   1       1.886   7.067 -17.624  0.00  0.00     0.039 A 
ATOM     10  C28 non d   1       0.943   8.034 -17.827  0.00  0.00     0.033 A 
ATOM     11  C29 non d   1       1.002   9.178 -17.008  0.00  0.00     0.045 A 
ENDROOT
BRANCH   3  12
ATOM     12  C5  non d   1       2.782  10.738 -14.239  0.00  0.00     0.055 C 
ATOM     13  C6  non d   1       3.776  11.543 -14.505  0.00  0.00     0.128 A 
ATOM     14  O1  non d   1       4.075  12.170 -15.671  0.00  0.00    -0.306 OA
ATOM     15  C22 non d   1       4.827  11.967 -13.560  0.00  0.00     0.218 A 
ATOM     16  C7  non d   1       5.239  12.962 -15.553  0.00  0.00     0.093 A 
ATOM     17  C8  non d   1       5.943  13.733 -16.420  0.00  0.00     0.075 A 
ATOM     18  C21 non d   1       5.702  12.843 -14.268  0.00  0.00     0.051 A 
ATOM     19  C9  non d   1       7.109  14.416 -16.139  0.00  0.00     0.071 A 
ATOM     20  C19 non d   1       7.531  14.237 -14.800  0.00  0.00     0.038 A 
ATOM     21  C20 non d   1       6.859  13.496 -13.910  0.00  0.00     0.021 A 
ATOM     22  O5  non d   1       4.931  11.626 -12.366  0.00  0.00    -0.284 OA
BRANCH  19  23
ATOM     23  O2  non d   1       7.760  15.129 -17.018  0.00  0.00    -0.346 OA
BRANCH  23  24
ATOM     24  C10 non d   1       7.703  15.987 -18.045  0.00  0.00     0.217 C 
BRANCH  24  25
ATOM     25  C11 non d   1       8.931  15.837 -18.866  0.00  0.00     0.002 A 
ATOM     26  C12 non d   1       9.166  14.688 -19.608  0.00  0.00     0.036 A 
ATOM     27  C13 non d   1      10.348  14.434 -20.236  0.00  0.00     0.035 A 
ATOM     28 Cl1  non d   1      10.630  12.951 -21.147  0.00  0.00    -0.084 Cl
ATOM     29  C14 non d   1      11.364  15.344 -20.140  0.00  0.00     0.036 A 
ATOM     30  C15 non d   1      11.172  16.509 -19.408  0.00  0.00     0.001 A 
ATOM     31  C16 non d   1       9.942  16.720 -18.787  0.00  0.00     0.088 A 
ATOM     32  C18 non d   1      12.268  17.503 -19.340  0.00  0.00     0.212 C 
ATOM     33  O3  non d   1       9.871  17.948 -18.099  0.00  0.00    -0.325 OA
ATOM     34  C17 non d   1      10.590  19.004 -18.815  0.00  0.00     0.345 C 
ATOM     35  O4  non d   1      11.948  18.663 -18.699  0.00  0.00    -0.362 OA
ENDBRANCH  24  25
ENDBRANCH  23  24
ENDBRANCH  19  23
ENDBRANCH   3  12
BRANCH   1  36
ATOM     36  C2  non d   1      -0.883  10.654 -17.662  0.00  0.00     0.124 C 
ATOM     37  C1  non d   1      -0.522  11.437 -18.896  0.00  0.00     0.027 C 
ENDBRANCH   1  36
TORSDOF 5
ENDMDL
MODEL 5
REMARK VINA RESULT:      -8.5      5.813     10.073
REMARK  5 active torsions:
REMARK  status: ('A' for Active; 'I' for Inactive)
REMARK    1  A    between atoms: C2_2  and  N1_3 
REMARK    2  A    between atoms: C4_5  and  C5_6 
REMARK    3  A    between atoms: C9_11  and  O2_12 
REMARK    4  A    between atoms: O2_12  and  C10_13 
REMARK    5  A    between atoms: C10_13  and  C11_14 
ROOT
ATOM      1  N1  non d   1      13.612  20.271 -17.497  0.00  0.00    -0.356 N 
ATOM      2  C3  non d   1      12.719  20.066 -18.525  0.00  0.00     0.103 A 
ATOM      3  C4  non d   1      11.637  19.451 -18.032  0.00  0.00    -0.005 A 
ATOM      4  C23 non d   1      11.905  19.281 -16.636  0.00  0.00     0.005 A 
ATOM      5  C24 non d   1      11.106  18.695 -15.715  0.00  0.00     0.051 A 
ATOM      6  C25 non d   1      11.569  18.609 -14.337  0.00  0.00     0.069 A 
ATOM      7  O6  non d   1      10.685  18.021 -13.555  0.00  0.00    -0.356 OA
ATOM      8  C26 non d   1       9.882  17.462 -12.731  0.00  0.00     0.210 C 
ATOM      9  C27 non d   1      12.798  19.128 -14.096  0.00  0.00     0.039 A 
ATOM     10  C28 non d   1      13.608  19.722 -15.020  0.00  0.00     0.033 A 
ATOM     11  C29 non d   1      13.135  19.797 -16.345  0.00  0.00     0.045 A 
ENDROOT
BRANCH   3  12
ATOM     12  C5  non d   1      10.379  18.892 -18.550  0.00  0.00     0.055 C 
ATOM     13  C6  non d   1      10.420  17.633 -18.895  0.00  0.00     0.128 A 
ATOM     14  O1  non d   1      11.470  16.775 -18.861  0.00  0.00    -0.306 OA
ATOM     15  C22 non d   1       9.289  16.838 -19.411  0.00  0.00     0.218 A 
ATOM     16  C7  non d   1      11.107  15.489 -19.320  0.00  0.00     0.093 A 
ATOM     17  C8  non d   1      11.787  14.328 -19.502  0.00  0.00     0.075 A 
ATOM     18  C21 non d   1       9.778  15.520 -19.656  0.00  0.00     0.051 A 
ATOM     19  C9  non d   1      11.271  13.154 -20.012  0.00  0.00     0.071 A 
ATOM     20  C19 non d   1       9.901  13.267 -20.347  0.00  0.00     0.038 A 
ATOM     21  C20 non d   1       9.190  14.388 -20.171  0.00  0.00     0.021 A 
ATOM     22  O5  non d   1       8.124  17.241 -19.598  0.00  0.00    -0.284 OA
BRANCH  19  23
ATOM     23  O2  non d   1      11.976  12.069 -20.187  0.00  0.00    -0.346 OA
BRANCH  23  24
ATOM     24  C10 non d   1      13.187  11.497 -20.202  0.00  0.00     0.217 C 
BRANCH  24  25
ATOM     25  C11 non d   1      13.026  10.026 -20.089  0.00  0.00     0.002 A 
ATOM     26  C12 non d   1      12.282   9.309 -21.014  0.00  0.00     0.036 A 
ATOM     27  C13 non d   1      11.965   7.993 -20.860  0.00  0.00     0.035 A 
ATOM     28 Cl1  non d   1      10.992   7.115 -22.040  0.00  0.00    -0.084 Cl
ATOM     29  C14 non d   1      12.391   7.331 -19.743  0.00  0.00     0.036 A 
ATOM     30  C15 non d   1      13.139   8.010 -18.789  0.00  0.00     0.001 A 
ATOM     31  C16 non d   1      13.438   9.355 -18.999  0.00  0.00     0.088 A 
ATOM     32  C18 non d   1      13.625   7.273 -17.599  0.00  0.00     0.212 C 
ATOM     33  O3  non d   1      14.221   9.916 -17.970  0.00  0.00    -0.325 OA
ATOM     34  C17 non d   1      15.204   8.956 -17.462  0.00  0.00     0.345 C 
ATOM     35  O4  non d   1      14.446   7.988 -16.780  0.00  0.00    -0.362 OA
ENDBRANCH  24  25
ENDBRANCH  23  24
ENDBRANCH  19  23
ENDBRANCH   3  12
BRANCH   1  36
ATOM     36  C2  non d   1      14.897  20.899 -17.699  0.00  0.00     0.124 C 
ATOM     37  C1  non d   1      15.839  20.016 -18.473  0.00  0.00     0.027 C 
ENDBRANCH   1  36
TORSDOF 5
ENDMDL
MODEL 6
REMARK VINA RESULT:      -8.4      5.143      9.308
REMARK  5 active torsions:
REMARK  status: ('A' for Active; 'I' for Inactive)
REMARK    1  A    between atoms: C2_2  and  N1_3 
REMARK    2  A    between atoms: C4_5  and  C5_6 
REMARK    3  A    between atoms: C9_11  and  O2_12 
REMARK    4  A    between atoms: O2_12  and  C10_13 
REMARK    5  A    between atoms: C10_13  and  C11_14 
ROOT
ATOM      1  N1  non d   1      11.888  11.073 -20.035  0.00  0.00    -0.356 N 
ATOM      2  C3  non d   1      11.370  12.161 -20.703  0.00  0.00     0.103 A 
ATOM      3  C4  non d   1      10.497  12.778 -19.897  0.00  0.00    -0.005 A 
ATOM      4  C23 non d   1      10.496  12.013 -18.687  0.00  0.00     0.005 A 
ATOM      5  C24 non d   1       9.758  12.240 -17.576  0.00  0.00     0.051 A 
ATOM      6  C25 non d   1       9.894  11.332 -16.446  0.00  0.00     0.069 A 
ATOM      7  O6  non d   1       9.121  11.682 -15.436  0.00  0.00    -0.356 OA
ATOM      8  C26 non d   1       8.402  11.953 -14.414  0.00  0.00     0.210 C 
ATOM      9  C27 non d   1      10.761  10.305 -16.617  0.00  0.00     0.039 A 
ATOM     10  C28 non d   1      11.510  10.071 -17.735  0.00  0.00     0.033 A 
ATOM     11  C29 non d   1      11.364  10.967 -18.812  0.00  0.00     0.045 A 
ENDROOT
BRANCH   3  12
ATOM     12  C5  non d   1       9.567  13.914 -19.977  0.00  0.00     0.055 C 
ATOM     13  C6  non d   1      10.062  15.074 -19.639  0.00  0.00     0.128 A 
ATOM     14  O1  non d   1      11.312  15.372 -19.203  0.00  0.00    -0.306 OA
ATOM     15  C22 non d   1       9.346  16.364 -19.663  0.00  0.00     0.218 A 
ATOM     16  C7  non d   1      11.456  16.753 -18.939  0.00  0.00     0.093 A 
ATOM     17  C8  non d   1      12.474  17.519 -18.468  0.00  0.00     0.075 A 
ATOM     18  C21 non d   1      10.261  17.364 -19.219  0.00  0.00     0.051 A 
ATOM     19  C9  non d   1      12.424  18.877 -18.226  0.00  0.00     0.071 A 
ATOM     20  C19 non d   1      11.158  19.433 -18.525  0.00  0.00     0.038 A 
ATOM     21  C20 non d   1      10.134  18.717 -19.003  0.00  0.00     0.021 A 
ATOM     22  O5  non d   1       8.162  16.547 -20.008  0.00  0.00    -0.284 OA
BRANCH  19  23
ATOM     23  O2  non d   1      13.428  19.564 -17.751  0.00  0.00    -0.346 OA
BRANCH  23  24
ATOM     24  C10 non d   1      14.075  20.024 -16.672  0.00  0.00     0.217 C 
BRANCH  24  25
ATOM     25  C11 non d   1      13.381  19.539 -15.452  0.00  0.00     0.002 A 
ATOM     26  C12 non d   1      12.514  20.358 -14.744  0.00  0.00     0.036 A 
ATOM     27  C13 non d   1      11.989  20.020 -13.532  0.00  0.00     0.035 A 
ATOM     28 Cl1  non d   1      10.912  21.093 -12.640  0.00  0.00    -0.084 Cl
ATOM     29  C14 non d   1      12.325  18.819 -12.972  0.00  0.00     0.036 A 
ATOM     30  C15 non d   1      13.191  17.967 -13.647  0.00  0.00     0.001 A 
ATOM     31  C16 non d   1      13.696  18.362 -14.884  0.00  0.00     0.088 A 
ATOM     32  C18 non d   1      13.520  16.654 -13.046  0.00  0.00     0.212 C 
ATOM     33  O3  non d   1      14.540  17.398 -15.472  0.00  0.00    -0.325 OA
ATOM     34  C17 non d   1      14.065  16.038 -15.206  0.00  0.00     0.345 C 
ATOM     35  O4  non d   1      14.281  15.841 -13.832  0.00  0.00    -0.362 OA
ENDBRANCH  24  25
ENDBRANCH  23  24
ENDBRANCH  19  23
ENDBRANCH   3  12
BRANCH   1  36
ATOM     36  C2  non d   1      12.850  10.179 -20.636  0.00  0.00     0.124 C 
ATOM     37  C1  non d   1      12.197   8.945 -21.198  0.00  0.00     0.027 C 
ENDBRANCH   1  36
TORSDOF 5
ENDMDL
MODEL 7
REMARK VINA RESULT:      -8.3      1.971      2.442
REMARK  5 active torsions:
REMARK  status: ('A' for Active; 'I' for Inactive)
REMARK    1  A    between atoms: C2_2  and  N1_3 
REMARK    2  A    between atoms: C4_5  and  C5_6 
REMARK    3  A    between atoms: C9_11  and  O2_12 
REMARK    4  A    between atoms: O2_12  and  C10_13 
REMARK    5  A    between atoms: C10_13  and  C11_14 
ROOT
ATOM      1  N1  non d   1       9.338  16.900 -18.302  0.00  0.00    -0.356 N 
ATOM      2  C3  non d   1       9.264  17.062 -16.936  0.00  0.00     0.103 A 
ATOM      3  C4  non d   1      10.361  17.709 -16.524  0.00  0.00    -0.005 A 
ATOM      4  C23 non d   1      11.129  17.940 -17.711  0.00  0.00     0.005 A 
ATOM      5  C24 non d   1      12.331  18.553 -17.801  0.00  0.00     0.051 A 
ATOM      6  C25 non d   1      12.958  18.680 -19.109  0.00  0.00     0.069 A 
ATOM      7  O6  non d   1      14.119  19.303 -19.042  0.00  0.00    -0.356 OA
ATOM      8  C26 non d   1      15.251  19.897 -19.062  0.00  0.00     0.210 C 
ATOM      9  C27 non d   1      12.268  18.147 -20.146  0.00  0.00     0.039 A 
ATOM     10  C28 non d   1      11.053  17.528 -20.063  0.00  0.00     0.033 A 
ATOM     11  C29 non d   1      10.466  17.423 -18.787  0.00  0.00     0.045 A 
ENDROOT
BRANCH   3  12
ATOM     12  C5  non d   1      10.949  18.137 -15.247  0.00  0.00     0.055 C 
ATOM     13  C6  non d   1      10.435  17.593 -14.177  0.00  0.00     0.128 A 
ATOM     14  O1  non d   1       9.417  16.702 -14.082  0.00  0.00    -0.306 OA
ATOM     15  C22 non d   1      10.867  17.833 -12.787  0.00  0.00     0.218 A 
ATOM     16  C7  non d   1       9.155  16.351 -12.738  0.00  0.00     0.093 A 
ATOM     17  C8  non d   1       8.243  15.546 -12.137  0.00  0.00     0.075 A 
ATOM     18  C21 non d   1      10.037  17.037 -11.943  0.00  0.00     0.051 A 
ATOM     19  C9  non d   1       8.101  15.350 -10.778  0.00  0.00     0.071 A 
ATOM     20  C19 non d   1       9.036  16.099 -10.024  0.00  0.00     0.038 A 
ATOM     21  C20 non d   1       9.959  16.894 -10.577  0.00  0.00     0.021 A 
ATOM     22  O5  non d   1      11.787  18.589 -12.418  0.00  0.00    -0.284 OA
BRANCH  19  23
ATOM     23  O2  non d   1       7.190  14.579 -10.249  0.00  0.00    -0.346 OA
BRANCH  23  24
ATOM     24  C10 non d   1       6.514  14.214  -9.151  0.00  0.00     0.217 C 
BRANCH  24  25
ATOM     25  C11 non d   1       5.591  13.105  -9.501  0.00  0.00     0.002 A 
ATOM     26  C12 non d   1       5.317  12.784 -10.822  0.00  0.00     0.036 A 
ATOM     27  C13 non d   1       4.354  11.893 -11.191  0.00  0.00     0.035 A 
ATOM     28 Cl1  non d   1       4.008  11.527 -12.880  0.00  0.00    -0.084 Cl
ATOM     29  C14 non d   1       3.609  11.278 -10.224  0.00  0.00     0.036 A 
ATOM     30  C15 non d   1       3.850  11.569  -8.887  0.00  0.00     0.001 A 
ATOM     31  C16 non d   1       4.849  12.486  -8.565  0.00  0.00     0.088 A 
ATOM     32  C18 non d   1       3.060  10.870  -7.846  0.00  0.00     0.212 C 
ATOM     33  O3  non d   1       5.006  12.672  -7.177  0.00  0.00    -0.325 OA
ATOM     34  C17 non d   1       4.815  11.417  -6.445  0.00  0.00     0.345 C 
ATOM     35  O4  non d   1       3.445  11.132  -6.565  0.00  0.00    -0.362 OA
ENDBRANCH  24  25
ENDBRANCH  23  24
ENDBRANCH  19  23
ENDBRANCH   3  12
BRANCH   1  36
ATOM     36  C2  non d   1       8.314  16.219 -19.059  0.00  0.00     0.124 C 
ATOM     37  C1  non d   1       8.280  14.744 -18.761  0.00  0.00     0.027 C 
ENDBRANCH   1  36
TORSDOF 5
ENDMDL
MODEL 8
REMARK VINA RESULT:      -8.2      5.960      9.035
REMARK  5 active torsions:
REMARK  status: ('A' for Active; 'I' for Inactive)
REMARK    1  A    between atoms: C2_2  and  N1_3 
REMARK    2  A    between atoms: C4_5  and  C5_6 
REMARK    3  A    between atoms: C9_11  and  O2_12 
REMARK    4  A    between atoms: O2_12  and  C10_13 
REMARK    5  A    between atoms: C10_13  and  C11_14 
ROOT
ATOM      1  N1  non d   1       7.288   9.475 -14.439  0.00  0.00    -0.356 N 
ATOM      2  C3  non d   1       7.008   8.813 -13.263  0.00  0.00     0.103 A 
ATOM      3  C4  non d   1       5.679   8.782 -13.100  0.00  0.00    -0.005 A 
ATOM      4  C23 non d   1       5.144   9.463 -14.239  0.00  0.00     0.005 A 
ATOM      5  C24 non d   1       3.840   9.697 -14.514  0.00  0.00     0.051 A 
ATOM      6  C25 non d   1       3.499  10.425 -15.729  0.00  0.00     0.069 A 
ATOM      7  O6  non d   1       2.195  10.571 -15.867  0.00  0.00    -0.356 OA
ATOM      8  C26 non d   1       0.947  10.755 -16.074  0.00  0.00     0.210 C 
ATOM      9  C27 non d   1       4.547  10.823 -16.490  0.00  0.00     0.039 A 
ATOM     10  C28 non d   1       5.864  10.589 -16.219  0.00  0.00     0.033 A 
ATOM     11  C29 non d   1       6.167   9.879 -15.041  0.00  0.00     0.045 A 
ENDROOT
BRANCH   3  12
ATOM     12  C5  non d   1       4.725   8.317 -12.082  0.00  0.00     0.055 C 
ATOM     13  C6  non d   1       4.545   9.121 -11.068  0.00  0.00     0.128 A 
ATOM     14  O1  non d   1       5.135  10.316 -10.814  0.00  0.00    -0.306 OA
ATOM     15  C22 non d   1       3.624   8.899  -9.937  0.00  0.00     0.218 A 
ATOM     16  C7  non d   1       4.669  10.880  -9.605  0.00  0.00     0.093 A 
ATOM     17  C8  non d   1       4.967  12.014  -8.920  0.00  0.00     0.075 A 
ATOM     18  C21 non d   1       3.746  10.021  -9.066  0.00  0.00     0.051 A 
ATOM     19  C9  non d   1       4.434  12.394  -7.705  0.00  0.00     0.071 A 
ATOM     20  C19 non d   1       3.501  11.454  -7.207  0.00  0.00     0.038 A 
ATOM     21  C20 non d   1       3.169  10.331  -7.856  0.00  0.00     0.021 A 
ATOM     22  O5  non d   1       2.876   7.914  -9.774  0.00  0.00    -0.284 OA
BRANCH  19  23
ATOM     23  O2  non d   1       4.772  13.487  -7.077  0.00  0.00    -0.346 OA
BRANCH  23  24
ATOM     24  C10 non d   1       5.728  14.178  -6.442  0.00  0.00     0.217 C 
BRANCH  24  25
ATOM     25  C11 non d   1       7.056  13.694  -6.899  0.00  0.00     0.002 A 
ATOM     26  C12 non d   1       7.809  12.821  -6.128  0.00  0.00     0.036 A 
ATOM     27  C13 non d   1       9.096  12.485  -6.422  0.00  0.00     0.035 A 
ATOM     28 Cl1  non d   1      10.040  11.396  -5.406  0.00  0.00    -0.084 Cl
ATOM     29  C14 non d   1       9.692  13.028  -7.526  0.00  0.00     0.036 A 
ATOM     30  C15 non d   1       8.974  13.907  -8.328  0.00  0.00     0.001 A 
ATOM     31  C16 non d   1       7.659  14.214  -7.982  0.00  0.00     0.088 A 
ATOM     32  C18 non d   1       9.618  14.462  -9.541  0.00  0.00     0.212 C 
ATOM     33  O3  non d   1       7.039  15.096  -8.890  0.00  0.00    -0.325 OA
ATOM     34  C17 non d   1       7.454  14.825 -10.268  0.00  0.00     0.345 C 
ATOM     35  O4  non d   1       8.801  15.220 -10.325  0.00  0.00    -0.362 OA
ENDBRANCH  24  25
ENDBRANCH  23  24
ENDBRANCH  19  23
ENDBRANCH   3  12
BRANCH   1  36
ATOM     36  C2  non d   1       8.638   9.698 -14.900  0.00  0.00     0.124 C 
ATOM     37  C1  non d   1       9.660   9.240 -13.894  0.00  0.00     0.027 C 
ENDBRANCH   1  36
TORSDOF 5
ENDMDL
MODEL 9
REMARK VINA RESULT:      -8.2      5.571      9.934
REMARK  5 active torsions:
REMARK  status: ('A' for Active; 'I' for Inactive)
REMARK    1  A    between atoms: C2_2  and  N1_3 
REMARK    2  A    between atoms: C4_5  and  C5_6 
REMARK    3  A    between atoms: C9_11  and  O2_12 
REMARK    4  A    between atoms: O2_12  and  C10_13 
REMARK    5  A    between atoms: C10_13  and  C11_14 
ROOT
ATOM      1  N1  non d   1      13.669  20.174 -17.500  0.00  0.00    -0.356 N 
ATOM      2  C3  non d   1      12.754  19.985 -18.512  0.00  0.00     0.103 A 
ATOM      3  C4  non d   1      11.664  19.403 -17.997  0.00  0.00    -0.005 A 
ATOM      4  C23 non d   1      11.950  19.236 -16.604  0.00  0.00     0.005 A 
ATOM      5  C24 non d   1      11.150  18.679 -15.666  0.00  0.00     0.051 A 
ATOM      6  C25 non d   1      11.633  18.592 -14.294  0.00  0.00     0.069 A 
ATOM      7  O6  non d   1      10.746  18.034 -13.493  0.00  0.00    -0.356 OA
ATOM      8  C26 non d   1       9.942  17.503 -12.653  0.00  0.00     0.210 C 
ATOM      9  C27 non d   1      12.879  19.079 -14.077  0.00  0.00     0.039 A 
ATOM     10  C28 non d   1      13.690  19.644 -15.019  0.00  0.00     0.033 A 
ATOM     11  C29 non d   1      13.198  19.721 -16.336  0.00  0.00     0.045 A 
ENDROOT
BRANCH   3  12
ATOM     12  C5  non d   1      10.384  18.875 -18.490  0.00  0.00     0.055 C 
ATOM     13  C6  non d   1      10.400  17.629 -18.883  0.00  0.00     0.128 A 
ATOM     14  O1  non d   1      11.442  16.761 -18.918  0.00  0.00    -0.306 OA
ATOM     15  C22 non d   1       9.245  16.863 -19.388  0.00  0.00     0.218 A 
ATOM     16  C7  non d   1      11.051  15.496 -19.411  0.00  0.00     0.093 A 
ATOM     17  C8  non d   1      11.714  14.338 -19.660  0.00  0.00     0.075 A 
ATOM     18  C21 non d   1       9.711  15.551 -19.698  0.00  0.00     0.051 A 
ATOM     19  C9  non d   1      11.169  13.188 -20.195  0.00  0.00     0.071 A 
ATOM     20  C19 non d   1       9.788  13.325 -20.476  0.00  0.00     0.038 A 
ATOM     21  C20 non d   1       9.095  14.443 -20.234  0.00  0.00     0.021 A 
ATOM     22  O5  non d   1       8.078  17.282 -19.518  0.00  0.00    -0.284 OA
BRANCH  19  23
ATOM     23  O2  non d   1      11.857  12.105 -20.434  0.00  0.00    -0.346 OA
BRANCH  23  24
ATOM     24  C10 non d   1      13.062  11.526 -20.522  0.00  0.00     0.217 C 
BRANCH  24  25
ATOM     25  C11 non d   1      13.067  10.298 -19.687  0.00  0.00     0.002 A 
ATOM     26  C12 non d   1      13.415  10.341 -18.345  0.00  0.00     0.036 A 
ATOM     27  C13 non d   1      13.599   9.225 -17.584  0.00  0.00     0.035 A 
ATOM     28 Cl1  non d   1      14.070   9.308 -15.888  0.00  0.00    -0.084 Cl
ATOM     29  C14 non d   1      13.441   7.994 -18.158  0.00  0.00     0.036 A 
ATOM     30  C15 non d   1      13.092   7.904 -19.500  0.00  0.00     0.001 A 
ATOM     31  C16 non d   1      12.913   9.077 -20.230  0.00  0.00     0.088 A 
ATOM     32  C18 non d   1      12.889   6.565 -20.101  0.00  0.00     0.212 C 
ATOM     33  O3  non d   1      12.539   8.847 -21.569  0.00  0.00    -0.325 OA
ATOM     34  C17 non d   1      11.638   7.697 -21.681  0.00  0.00     0.345 C 
ATOM     35  O4  non d   1      12.437   6.580 -21.387  0.00  0.00    -0.362 OA
ENDBRANCH  24  25
ENDBRANCH  23  24
ENDBRANCH  19  23
ENDBRANCH   3  12
BRANCH   1  36
ATOM     36  C2  non d   1      14.967  20.765 -17.728  0.00  0.00     0.124 C 
ATOM     37  C1  non d   1      15.823  19.914 -18.627  0.00  0.00     0.027 C 
ENDBRANCH   1  36
TORSDOF 5
ENDMDL
