MODEL 1
REMARK VINA RESULT:      -8.8      0.000      0.000
REMARK  4 active torsions:
REMARK  status: ('A' for Active; 'I' for Inactive)
REMARK    1  A    between atoms: N4_4  and  C5_5 
REMARK    2  A    between atoms: C14_14  and  C15_15 
REMARK       I    between atoms: C15_15  and  N17_17 
REMARK    3  A    between atoms: N17_17  and  C18_18 
REMARK    4  A    between atoms: C20_20  and  C21_21 
ROOT
ATOM      1  C15 <0> d   1       6.057  11.702 -12.569  0.00  0.00     0.600 C 
ATOM      2  O16 <0> d   1       6.378  10.780 -13.296  0.00  0.00    -0.490 OA
ATOM      3  N17 <0> d   1       5.515  12.818 -13.096  0.00  0.00    -0.670 N 
ATOM      4  H45 <0> d   1       5.191  13.522 -12.512  0.00  0.00     0.410 HD
ENDROOT
BRANCH   3   5
ATOM      5  C18 <0> d   1       5.418  12.961 -14.484  0.00  0.00     0.120 A 
ATOM      6  C33 <0> d   1       4.339  12.407 -15.169  0.00  0.00     0.090 A 
ATOM      7  C32 <0> d   1       4.237  12.551 -16.541  0.00  0.00     0.020 A 
ATOM      8  F34 <0> d   1       3.383  11.737 -14.489  0.00  0.00    -0.130 F 
ATOM      9  C31 <0> d   1       5.211  13.235 -17.241  0.00  0.00     0.040 A 
ATOM     10  C20 <0> d   1       6.299  13.789 -16.564  0.00  0.00     0.000 A 
ATOM     11  C19 <0> d   1       6.399  13.649 -15.180  0.00  0.00     0.110 A 
BRANCH  10  12
ATOM     12  C21 <0> d   1       7.343  14.522 -17.313  0.00  0.00     0.210 A 
ATOM     13  N30 <0> d   1       8.350  13.973 -18.053  0.00  0.00    -0.470 N 
ATOM     14  C24 <0> d   1       9.066  15.018 -18.546  0.00  0.00     0.190 A 
ATOM     15  C29 <0> d   1       8.603  12.553 -18.293  0.00  0.00     0.280 C 
ATOM     16  N23 <0> d   1       8.500  16.115 -18.124  0.00  0.00    -0.290 NA
ATOM     17  C25 <0> d   1      10.299  14.902 -19.406  0.00  0.00     0.160 C 
ATOM     18  N22 <0> d   1       7.481  15.828 -17.392  0.00  0.00    -0.270 NA
ATOM     19  C26 <0> d   1      10.036  13.889 -20.524  0.00  0.00     0.020 C 
ATOM     20  C27 <0> d   1      10.393  12.487 -20.039  0.00  0.00     0.020 C 
ATOM     21  C28 <0> d   1      10.099  12.343 -18.547  0.00  0.00     0.030 C 
ENDBRANCH  10  12
ENDBRANCH   3   5
BRANCH   1  22
ATOM     22  C14 <0> d   1       6.263  11.600 -11.121  0.00  0.00    -0.280 A 
ATOM     23  C13 <0> d   1       5.352  11.933 -10.194  0.00  0.00     0.200 A 
ATOM     24  C12 <0> d   1       5.760  11.756  -8.865  0.00  0.00    -0.220 A 
ATOM     25  C2  <0> d   1       5.275  11.931  -7.530  0.00  0.00     0.150 A 
ATOM     26  C11 <0> d   1       7.049  11.262  -8.755  0.00  0.00     0.030 A 
ATOM     27  C1  <0> d   1       3.913  12.452  -7.150  0.00  0.00     0.180 C 
ATOM     28  N3  <0> d   1       6.204  11.558  -6.701  0.00  0.00    -0.250 NA
ATOM     29  N4  <0> d   1       7.326  11.135  -7.419  0.00  0.00    -0.300 N 
ATOM     30  S35 <0> d   1       7.734  11.022 -10.357  0.00  0.00     0.200 SA
BRANCH  29  31
ATOM     31  C5  <0> d   1       8.524  10.663  -6.868  0.00  0.00     0.150 A 
ATOM     32  C10 <0> d   1       8.968   9.381  -7.160  0.00  0.00     0.030 A 
ATOM     33  C9  <0> d   1      10.154   8.922  -6.619  0.00  0.00     0.040 A 
ATOM     34  C8  <0> d   1      10.891   9.735  -5.778  0.00  0.00     0.010 A 
ATOM     35  C7  <0> d   1      10.449  11.010  -5.482  0.00  0.00     0.050 A 
ATOM     36  C6  <0> d   1       9.268  11.477  -6.023  0.00  0.00     0.000 A 
ENDBRANCH  29  31
ENDBRANCH   1  22
TORSDOF 4
ENDMDL
MODEL 2
REMARK VINA RESULT:      -8.6      4.250     11.281
REMARK  4 active torsions:
REMARK  status: ('A' for Active; 'I' for Inactive)
REMARK    1  A    between atoms: N4_4  and  C5_5 
REMARK    2  A    between atoms: C14_14  and  C15_15 
REMARK       I    between atoms: C15_15  and  N17_17 
REMARK    3  A    between atoms: N17_17  and  C18_18 
REMARK    4  A    between atoms: C20_20  and  C21_21 
ROOT
ATOM      1  C15 <0> d   1       9.576  16.265 -13.906  0.00  0.00     0.600 C 
ATOM      2  O16 <0> d   1       8.401  16.385 -13.612  0.00  0.00    -0.490 OA
ATOM      3  N17 <0> d   1      10.511  16.215 -12.936  0.00  0.00    -0.670 N 
ATOM      4  H45 <0> d   1      11.438  16.044 -13.165  0.00  0.00     0.410 HD
ENDROOT
BRANCH   3   5
ATOM      5  C18 <0> d   1      10.145  16.407 -11.600  0.00  0.00     0.120 A 
ATOM      6  C33 <0> d   1       9.967  17.696 -11.104  0.00  0.00     0.090 A 
ATOM      7  C32 <0> d   1       9.599  17.890  -9.785  0.00  0.00     0.020 A 
ATOM      8  F34 <0> d   1      10.141  18.760 -11.918  0.00  0.00    -0.130 F 
ATOM      9  C31 <0> d   1       9.419  16.807  -8.948  0.00  0.00     0.040 A 
ATOM     10  C20 <0> d   1       9.600  15.511  -9.434  0.00  0.00     0.000 A 
ATOM     11  C19 <0> d   1       9.966  15.315 -10.766  0.00  0.00     0.110 A 
BRANCH  10  12
ATOM     12  C21 <0> d   1       9.408  14.350  -8.539  0.00  0.00     0.210 A 
ATOM     13  N30 <0> d   1       8.226  13.912  -8.015  0.00  0.00    -0.470 N 
ATOM     14  C24 <0> d   1       8.532  12.831  -7.250  0.00  0.00     0.190 A 
ATOM     15  C29 <0> d   1       6.894  14.469  -8.244  0.00  0.00     0.280 C 
ATOM     16  N23 <0> d   1       9.820  12.645  -7.331  0.00  0.00    -0.290 NA
ATOM     17  C25 <0> d   1       7.544  12.025  -6.446  0.00  0.00     0.160 C 
ATOM     18  N22 <0> d   1      10.345  13.541  -8.090  0.00  0.00    -0.270 NA
ATOM     19  C26 <0> d   1       6.329  11.704  -7.322  0.00  0.00     0.020 C 
ATOM     20  C27 <0> d   1       5.308  12.832  -7.214  0.00  0.00     0.020 C 
ATOM     21  C28 <0> d   1       6.009  14.177  -7.028  0.00  0.00     0.030 C 
ENDBRANCH  10  12
ENDBRANCH   3   5
BRANCH   1  22
ATOM     22  C14 <0> d   1       9.974  16.176 -15.314  0.00  0.00    -0.280 A 
ATOM     23  C13 <0> d   1       9.948  17.199 -16.182  0.00  0.00     0.200 A 
ATOM     24  C12 <0> d   1      10.372  16.891 -17.482  0.00  0.00    -0.220 A 
ATOM     25  C2  <0> d   1      10.547  17.509 -18.760  0.00  0.00     0.150 A 
ATOM     26  C11 <0> d   1      10.744  15.566 -17.630  0.00  0.00     0.030 A 
ATOM     27  C1  <0> d   1      10.264  18.953 -19.084  0.00  0.00     0.180 C 
ATOM     28  N3  <0> d   1      10.996  16.618 -19.592  0.00  0.00    -0.250 NA
ATOM     29  N4  <0> d   1      11.134  15.393 -18.932  0.00  0.00    -0.300 N 
ATOM     30  S35 <0> d   1      10.553  14.718 -16.101  0.00  0.00     0.200 SA
BRANCH  29  31
ATOM     31  C5  <0> d   1      11.590  14.199 -19.504  0.00  0.00     0.150 A 
ATOM     32  C10 <0> d   1      12.855  13.718 -19.196  0.00  0.00     0.030 A 
ATOM     33  C9  <0> d   1      13.299  12.536 -19.757  0.00  0.00     0.040 A 
ATOM     34  C8  <0> d   1      12.490  11.839 -20.634  0.00  0.00     0.010 A 
ATOM     35  C7  <0> d   1      11.231  12.318 -20.948  0.00  0.00     0.050 A 
ATOM     36  C6  <0> d   1      10.779  13.496 -20.386  0.00  0.00     0.000 A 
ENDBRANCH  29  31
ENDBRANCH   1  22
TORSDOF 4
ENDMDL
MODEL 3
REMARK VINA RESULT:      -8.6      5.029      6.678
REMARK  4 active torsions:
REMARK  status: ('A' for Active; 'I' for Inactive)
REMARK    1  A    between atoms: N4_4  and  C5_5 
REMARK    2  A    between atoms: C14_14  and  C15_15 
REMARK       I    between atoms: C15_15  and  N17_17 
REMARK    3  A    between atoms: N17_17  and  C18_18 
REMARK    4  A    between atoms: C20_20  and  C21_21 
ROOT
ATOM      1  C15 <0> d   1      11.055  16.703 -14.910  0.00  0.00     0.600 C 
ATOM      2  O16 <0> d   1      12.196  16.433 -15.237  0.00  0.00    -0.490 OA
ATOM      3  N17 <0> d   1      10.109  16.883 -15.853  0.00  0.00    -0.670 N 
ATOM      4  H45 <0> d   1       9.186  17.024 -15.592  0.00  0.00     0.410 HD
ENDROOT
BRANCH   3   5
ATOM      5  C18 <0> d   1      10.459  16.866 -17.208  0.00  0.00     0.120 A 
ATOM      6  C33 <0> d   1      10.691  18.061 -17.883  0.00  0.00     0.090 A 
ATOM      7  C32 <0> d   1      11.042  18.047 -19.222  0.00  0.00     0.020 A 
ATOM      8  F34 <0> d   1      10.585  19.237 -17.227  0.00  0.00    -0.130 F 
ATOM      9  C31 <0> d   1      11.152  16.848 -19.898  0.00  0.00     0.040 A 
ATOM     10  C20 <0> d   1      10.916  15.645 -19.230  0.00  0.00     0.000 A 
ATOM     11  C19 <0> d   1      10.567  15.658 -17.880  0.00  0.00     0.110 A 
BRANCH  10  12
ATOM     12  C21 <0> d   1      11.033  14.360 -19.954  0.00  0.00     0.210 A 
ATOM     13  N30 <0> d   1      11.981  13.399 -19.757  0.00  0.00    -0.470 N 
ATOM     14  C24 <0> d   1      11.702  12.410 -20.646  0.00  0.00     0.190 A 
ATOM     15  C29 <0> d   1      13.065  13.409 -18.776  0.00  0.00     0.280 C 
ATOM     16  N23 <0> d   1      10.645  12.771 -21.317  0.00  0.00    -0.290 NA
ATOM     17  C25 <0> d   1      12.501  11.142 -20.819  0.00  0.00     0.160 C 
ATOM     18  N22 <0> d   1      10.245  13.926 -20.914  0.00  0.00    -0.270 NA
ATOM     19  C26 <0> d   1      12.772  10.531 -19.441  0.00  0.00     0.020 C 
ATOM     20  C27 <0> d   1      14.059  11.115 -18.866  0.00  0.00     0.020 C 
ATOM     21  C28 <0> d   1      14.232  12.568 -19.304  0.00  0.00     0.030 C 
ENDBRANCH  10  12
ENDBRANCH   3   5
BRANCH   1  22
ATOM     22  C14 <0> d   1      10.711  16.834 -13.491  0.00  0.00    -0.280 A 
ATOM     23  C13 <0> d   1      10.986  17.906 -12.733  0.00  0.00     0.200 A 
ATOM     24  C12 <0> d   1      10.567  17.818 -11.399  0.00  0.00    -0.220 A 
ATOM     25  C2  <0> d   1      10.580  18.577 -10.186  0.00  0.00     0.150 A 
ATOM     26  C11 <0> d   1       9.936  16.621 -11.107  0.00  0.00     0.030 A 
ATOM     27  C1  <0> d   1      11.169  19.954 -10.018  0.00  0.00     0.180 C 
ATOM     28  N3  <0> d   1       9.994  17.884  -9.257  0.00  0.00    -0.250 NA
ATOM     29  N4  <0> d   1       9.577  16.658  -9.785  0.00  0.00    -0.300 N 
ATOM     30  S35 <0> d   1       9.879  15.611 -12.546  0.00  0.00     0.200 SA
BRANCH  29  31
ATOM     31  C5  <0> d   1       8.910  15.646  -9.084  0.00  0.00     0.150 A 
ATOM     32  C10 <0> d   1       9.581  14.910  -8.117  0.00  0.00     0.030 A 
ATOM     33  C9  <0> d   1       8.917  13.917  -7.422  0.00  0.00     0.040 A 
ATOM     34  C8  <0> d   1       7.590  13.647  -7.700  0.00  0.00     0.010 A 
ATOM     35  C7  <0> d   1       6.920  14.375  -8.666  0.00  0.00     0.050 A 
ATOM     36  C6  <0> d   1       7.576  15.372  -9.359  0.00  0.00     0.000 A 
ENDBRANCH  29  31
ENDBRANCH   1  22
TORSDOF 4
ENDMDL
MODEL 4
REMARK VINA RESULT:      -8.6      9.672     13.968
REMARK  4 active torsions:
REMARK  status: ('A' for Active; 'I' for Inactive)
REMARK    1  A    between atoms: N4_4  and  C5_5 
REMARK    2  A    between atoms: C14_14  and  C15_15 
REMARK       I    between atoms: C15_15  and  N17_17 
REMARK    3  A    between atoms: N17_17  and  C18_18 
REMARK    4  A    between atoms: C20_20  and  C21_21 
ROOT
ATOM      1  C15 <0> d   1      14.564  19.083 -18.478  0.00  0.00     0.600 C 
ATOM      2  O16 <0> d   1      14.531  18.414 -17.462  0.00  0.00    -0.490 OA
ATOM      3  N17 <0> d   1      13.478  19.151 -19.275  0.00  0.00    -0.670 N 
ATOM      4  H45 <0> d   1      13.477  19.742 -20.043  0.00  0.00     0.410 HD
ENDROOT
BRANCH   3   5
ATOM      5  C18 <0> d   1      12.352  18.370 -18.992  0.00  0.00     0.120 A 
ATOM      6  C33 <0> d   1      11.359  18.858 -18.148  0.00  0.00     0.090 A 
ATOM      7  C32 <0> d   1      10.241  18.090 -17.871  0.00  0.00     0.020 A 
ATOM      8  F34 <0> d   1      11.480  20.090 -17.607  0.00  0.00    -0.130 F 
ATOM      9  C31 <0> d   1      10.111  16.831 -18.421  0.00  0.00     0.040 A 
ATOM     10  C20 <0> d   1      11.105  16.331 -19.264  0.00  0.00     0.000 A 
ATOM     11  C19 <0> d   1      12.229  17.106 -19.548  0.00  0.00     0.110 A 
BRANCH  10  12
ATOM     12  C21 <0> d   1      10.967  14.981 -19.853  0.00  0.00     0.210 A 
ATOM     13  N30 <0> d   1      11.804  13.920 -19.662  0.00  0.00    -0.470 N 
ATOM     14  C24 <0> d   1      11.293  12.901 -20.402  0.00  0.00     0.190 A 
ATOM     15  C29 <0> d   1      12.996  13.871 -18.817  0.00  0.00     0.280 C 
ATOM     16  N23 <0> d   1      10.213  13.342 -20.984  0.00  0.00    -0.290 NA
ATOM     17  C25 <0> d   1      11.897  11.525 -20.526  0.00  0.00     0.160 C 
ATOM     18  N22 <0> d   1      10.015  14.573 -20.665  0.00  0.00    -0.270 NA
ATOM     19  C26 <0> d   1      12.263  11.011 -19.130  0.00  0.00     0.020 C 
ATOM     20  C27 <0> d   1      13.675  11.464 -18.772  0.00  0.00     0.020 C 
ATOM     21  C28 <0> d   1      13.972  12.833 -19.381  0.00  0.00     0.030 C 
ENDBRANCH  10  12
ENDBRANCH   3   5
BRANCH   1  22
ATOM     22  C14 <0> d   1      15.783  19.814 -18.835  0.00  0.00    -0.280 A 
ATOM     23  C13 <0> d   1      15.814  21.084 -19.266  0.00  0.00     0.200 A 
ATOM     24  C12 <0> d   1      17.091  21.587 -19.554  0.00  0.00    -0.220 A 
ATOM     25  C2  <0> d   1      17.726  22.778 -20.024  0.00  0.00     0.150 A 
ATOM     26  C11 <0> d   1      18.098  20.662 -19.334  0.00  0.00     0.030 A 
ATOM     27  C1  <0> d   1      17.027  24.059 -20.398  0.00  0.00     0.180 C 
ATOM     28  N3  <0> d   1      19.009  22.573 -20.069  0.00  0.00    -0.250 NA
ATOM     29  N4  <0> d   1      19.286  21.269 -19.648  0.00  0.00    -0.300 N 
ATOM     30  S35 <0> d   1      17.407  19.152 -18.758  0.00  0.00     0.200 SA
BRANCH  29  31
ATOM     31  C5  <0> d   1      20.556  20.686 -19.564  0.00  0.00     0.150 A 
ATOM     32  C10 <0> d   1      21.069  19.973 -20.639  0.00  0.00     0.030 A 
ATOM     33  C9  <0> d   1      22.326  19.405 -20.554  0.00  0.00     0.040 A 
ATOM     34  C8  <0> d   1      23.067  19.535 -19.394  0.00  0.00     0.010 A 
ATOM     35  C7  <0> d   1      22.557  20.240 -18.320  0.00  0.00     0.050 A 
ATOM     36  C6  <0> d   1      21.305  20.815 -18.400  0.00  0.00     0.000 A 
ENDBRANCH  29  31
ENDBRANCH   1  22
TORSDOF 4
ENDMDL
MODEL 5
REMARK VINA RESULT:      -8.6      4.050     10.929
REMARK  4 active torsions:
REMARK  status: ('A' for Active; 'I' for Inactive)
REMARK    1  A    between atoms: N4_4  and  C5_5 
REMARK    2  A    between atoms: C14_14  and  C15_15 
REMARK       I    between atoms: C15_15  and  N17_17 
REMARK    3  A    between atoms: N17_17  and  C18_18 
REMARK    4  A    between atoms: C20_20  and  C21_21 
ROOT
ATOM      1  C15 <0> d   1       9.034  15.952 -14.313  0.00  0.00     0.600 C 
ATOM      2  O16 <0> d   1       7.920  16.355 -14.034  0.00  0.00    -0.490 OA
ATOM      3  N17 <0> d   1       9.961  15.809 -13.345  0.00  0.00    -0.670 N 
ATOM      4  H45 <0> d   1      10.824  15.418 -13.553  0.00  0.00     0.410 HD
ENDROOT
BRANCH   3   5
ATOM      5  C18 <0> d   1       9.679  16.225 -12.039  0.00  0.00     0.120 A 
ATOM      6  C33 <0> d   1      10.098  17.478 -11.600  0.00  0.00     0.090 A 
ATOM      7  C32 <0> d   1       9.816  17.894 -10.311  0.00  0.00     0.020 A 
ATOM      8  F34 <0> d   1      10.772  18.294 -12.439  0.00  0.00    -0.130 F 
ATOM      9  C31 <0> d   1       9.128  17.064  -9.449  0.00  0.00     0.040 A 
ATOM     10  C20 <0> d   1       8.708  15.804  -9.878  0.00  0.00     0.000 A 
ATOM     11  C19 <0> d   1       8.988  15.386 -11.179  0.00  0.00     0.110 A 
BRANCH  10  12
ATOM     12  C21 <0> d   1       7.972  14.914  -8.954  0.00  0.00     0.210 A 
ATOM     13  N30 <0> d   1       8.502  13.913  -8.192  0.00  0.00    -0.470 N 
ATOM     14  C24 <0> d   1       7.458  13.364  -7.517  0.00  0.00     0.190 A 
ATOM     15  C29 <0> d   1       9.907  13.522  -8.094  0.00  0.00     0.280 C 
ATOM     16  N23 <0> d   1       6.382  14.013  -7.861  0.00  0.00    -0.290 NA
ATOM     17  C25 <0> d   1       7.553  12.199  -6.564  0.00  0.00     0.160 C 
ATOM     18  N22 <0> d   1       6.678  14.931  -8.713  0.00  0.00    -0.270 NA
ATOM     19  C26 <0> d   1       8.719  12.435  -5.600  0.00  0.00     0.020 C 
ATOM     20  C27 <0> d   1      10.006  11.883  -6.206  0.00  0.00     0.020 C 
ATOM     21  C28 <0> d   1       9.992  12.037  -7.726  0.00  0.00     0.030 C 
ENDBRANCH  10  12
ENDBRANCH   3   5
BRANCH   1  22
ATOM     22  C14 <0> d   1       9.367  15.622 -15.702  0.00  0.00    -0.280 A 
ATOM     23  C13 <0> d   1       8.865  16.246 -16.778  0.00  0.00     0.200 A 
ATOM     24  C12 <0> d   1       9.321  15.768 -18.014  0.00  0.00    -0.220 A 
ATOM     25  C2  <0> d   1       9.155  16.001 -19.415  0.00  0.00     0.150 A 
ATOM     26  C11 <0> d   1      10.220  14.723 -17.891  0.00  0.00     0.030 A 
ATOM     27  C1  <0> d   1       8.264  17.047 -20.034  0.00  0.00     0.180 C 
ATOM     28  N3  <0> d   1       9.906  15.164 -20.065  0.00  0.00    -0.250 NA
ATOM     29  N4  <0> d   1      10.588  14.348 -19.157  0.00  0.00    -0.300 N 
ATOM     30  S35 <0> d   1      10.482  14.358 -16.191  0.00  0.00     0.200 SA
BRANCH  29  31
ATOM     31  C5  <0> d   1      11.488  13.327 -19.485  0.00  0.00     0.150 A 
ATOM     32  C10 <0> d   1      11.032  12.164 -20.090  0.00  0.00     0.030 A 
ATOM     33  C9  <0> d   1      11.925  11.162 -20.419  0.00  0.00     0.040 A 
ATOM     34  C8  <0> d   1      13.269  11.311 -20.132  0.00  0.00     0.010 A 
ATOM     35  C7  <0> d   1      13.725  12.465 -19.525  0.00  0.00     0.050 A 
ATOM     36  C6  <0> d   1      12.840  13.473 -19.199  0.00  0.00     0.000 A 
ENDBRANCH  29  31
ENDBRANCH   1  22
TORSDOF 4
ENDMDL
MODEL 6
REMARK VINA RESULT:      -8.5      2.122     10.266
REMARK  4 active torsions:
REMARK  status: ('A' for Active; 'I' for Inactive)
REMARK    1  A    between atoms: N4_4  and  C5_5 
REMARK    2  A    between atoms: C14_14  and  C15_15 
REMARK       I    between atoms: C15_15  and  N17_17 
REMARK    3  A    between atoms: N17_17  and  C18_18 
REMARK    4  A    between atoms: C20_20  and  C21_21 
ROOT
ATOM      1  C15 <0> d   1       6.049  13.542 -12.486  0.00  0.00     0.600 C 
ATOM      2  O16 <0> d   1       5.804  14.534 -11.824  0.00  0.00    -0.490 OA
ATOM      3  N17 <0> d   1       5.920  12.318 -11.937  0.00  0.00    -0.670 N 
ATOM      4  H45 <0> d   1       6.042  11.526 -12.484  0.00  0.00     0.410 HD
ENDROOT
BRANCH   3   5
ATOM      5  C18 <0> d   1       5.608  12.188 -10.579  0.00  0.00     0.120 A 
ATOM      6  C33 <0> d   1       4.284  12.017 -10.181  0.00  0.00     0.090 A 
ATOM      7  C32 <0> d   1       3.973  11.882  -8.840  0.00  0.00     0.020 A 
ATOM      8  F34 <0> d   1       3.303  11.970 -11.109  0.00  0.00    -0.130 F 
ATOM      9  C31 <0> d   1       4.971  11.929  -7.888  0.00  0.00     0.040 A 
ATOM     10  C20 <0> d   1       6.300  12.106  -8.277  0.00  0.00     0.000 A 
ATOM     11  C19 <0> d   1       6.615  12.236  -9.629  0.00  0.00     0.110 A 
BRANCH  10  12
ATOM     12  C21 <0> d   1       7.370  12.157  -7.257  0.00  0.00     0.210 A 
ATOM     13  N30 <0> d   1       8.356  11.233  -7.065  0.00  0.00    -0.470 N 
ATOM     14  C24 <0> d   1       9.097  11.687  -6.020  0.00  0.00     0.190 A 
ATOM     15  C29 <0> d   1       8.591  10.013  -7.835  0.00  0.00     0.280 C 
ATOM     16  N23 <0> d   1       8.577  12.818  -5.632  0.00  0.00    -0.290 NA
ATOM     17  C25 <0> d   1      10.289  10.981  -5.424  0.00  0.00     0.160 C 
ATOM     18  N22 <0> d   1       7.553  13.101  -6.358  0.00  0.00    -0.270 NA
ATOM     19  C26 <0> d   1      11.219  10.529  -6.554  0.00  0.00     0.020 C 
ATOM     20  C27 <0> d   1      10.799   9.146  -7.041  0.00  0.00     0.020 C 
ATOM     21  C28 <0> d   1       9.284   8.978  -6.943  0.00  0.00     0.030 C 
ENDBRANCH  10  12
ENDBRANCH   3   5
BRANCH   1  22
ATOM     22  C14 <0> d   1       6.486  13.680 -13.878  0.00  0.00    -0.280 A 
ATOM     23  C13 <0> d   1       6.273  12.770 -14.840  0.00  0.00     0.200 A 
ATOM     24  C12 <0> d   1       6.779  13.106 -16.103  0.00  0.00    -0.220 A 
ATOM     25  C2  <0> d   1       6.869  12.579 -17.430  0.00  0.00     0.150 A 
ATOM     26  C11 <0> d   1       7.416  14.335 -16.122  0.00  0.00     0.030 A 
ATOM     27  C1  <0> d   1       6.317  11.255 -17.891  0.00  0.00     0.180 C 
ATOM     28  N3  <0> d   1       7.502  13.437 -18.173  0.00  0.00    -0.250 NA
ATOM     29  N4  <0> d   1       7.861  14.545 -17.401  0.00  0.00    -0.300 N 
ATOM     30  S35 <0> d   1       7.362  15.059 -14.521  0.00  0.00     0.200 SA
BRANCH  29  31
ATOM     31  C5  <0> d   1       8.556  15.673 -17.856  0.00  0.00     0.150 A 
ATOM     32  C10 <0> d   1       8.291  16.194 -19.114  0.00  0.00     0.030 A 
ATOM     33  C9  <0> d   1       8.974  17.311 -19.556  0.00  0.00     0.040 A 
ATOM     34  C8  <0> d   1       9.930  17.901 -18.751  0.00  0.00     0.010 A 
ATOM     35  C7  <0> d   1      10.201  17.382 -17.499  0.00  0.00     0.050 A 
ATOM     36  C6  <0> d   1       9.518  16.269 -17.049  0.00  0.00     0.000 A 
ENDBRANCH  29  31
ENDBRANCH   1  22
TORSDOF 4
ENDMDL
MODEL 7
REMARK VINA RESULT:      -8.5      3.965     11.122
REMARK  4 active torsions:
REMARK  status: ('A' for Active; 'I' for Inactive)
REMARK    1  A    between atoms: N4_4  and  C5_5 
REMARK    2  A    between atoms: C14_14  and  C15_15 
REMARK       I    between atoms: C15_15  and  N17_17 
REMARK    3  A    between atoms: N17_17  and  C18_18 
REMARK    4  A    between atoms: C20_20  and  C21_21 
ROOT
ATOM      1  C15 <0> d   1       9.745  15.951 -12.034  0.00  0.00     0.600 C 
ATOM      2  O16 <0> d   1       9.740  16.790 -11.153  0.00  0.00    -0.490 OA
ATOM      3  N17 <0> d   1       9.583  14.649 -11.726  0.00  0.00    -0.670 N 
ATOM      4  H45 <0> d   1       9.512  13.988 -12.433  0.00  0.00     0.410 HD
ENDROOT
BRANCH   3   5
ATOM      5  C18 <0> d   1       9.516  14.249 -10.387  0.00  0.00     0.120 A 
ATOM      6  C33 <0> d   1      10.686  14.025  -9.667  0.00  0.00     0.090 A 
ATOM      7  C32 <0> d   1      10.624  13.636  -8.340  0.00  0.00     0.020 A 
ATOM      8  F34 <0> d   1      11.887  14.200 -10.262  0.00  0.00    -0.130 F 
ATOM      9  C31 <0> d   1       9.400  13.455  -7.727  0.00  0.00     0.040 A 
ATOM     10  C20 <0> d   1       8.222  13.672  -8.443  0.00  0.00     0.000 A 
ATOM     11  C19 <0> d   1       8.284  14.070  -9.778  0.00  0.00     0.110 A 
BRANCH  10  12
ATOM     12  C21 <0> d   1       6.910  13.478  -7.787  0.00  0.00     0.210 A 
ATOM     13  N30 <0> d   1       6.168  12.332  -7.773  0.00  0.00    -0.470 N 
ATOM     14  C24 <0> d   1       5.044  12.622  -7.067  0.00  0.00     0.190 A 
ATOM     15  C29 <0> d   1       6.513  11.044  -8.372  0.00  0.00     0.280 C 
ATOM     16  N23 <0> d   1       5.131  13.865  -6.682  0.00  0.00    -0.290 NA
ATOM     17  C25 <0> d   1       3.907  11.666  -6.807  0.00  0.00     0.160 C 
ATOM     18  N22 <0> d   1       6.232  14.378  -7.107  0.00  0.00    -0.270 NA
ATOM     19  C26 <0> d   1       4.478  10.326  -6.334  0.00  0.00     0.020 C 
ATOM     20  C27 <0> d   1       4.780   9.443  -7.541  0.00  0.00     0.020 C 
ATOM     21  C28 <0> d   1       5.227  10.292  -8.729  0.00  0.00     0.030 C 
ENDBRANCH  10  12
ENDBRANCH   3   5
BRANCH   1  22
ATOM     22  C14 <0> d   1       9.929  16.357 -13.431  0.00  0.00    -0.280 A 
ATOM     23  C13 <0> d   1      10.410  17.545 -13.825  0.00  0.00     0.200 A 
ATOM     24  C12 <0> d   1      10.501  17.723 -15.212  0.00  0.00    -0.220 A 
ATOM     25  C2  <0> d   1      10.897  18.705 -16.174  0.00  0.00     0.150 A 
ATOM     26  C11 <0> d   1      10.071  16.619 -15.929  0.00  0.00     0.030 A 
ATOM     27  C1  <0> d   1      11.434  20.077 -15.861  0.00  0.00     0.180 C 
ATOM     28  N3  <0> d   1      10.722  18.212 -17.364  0.00  0.00    -0.250 NA
ATOM     29  N4  <0> d   1      10.209  16.916 -17.259  0.00  0.00    -0.300 N 
ATOM     30  S35 <0> d   1       9.553  15.354 -14.822  0.00  0.00     0.200 SA
BRANCH  29  31
ATOM     31  C5  <0> d   1       9.892  16.069 -18.329  0.00  0.00     0.150 A 
ATOM     32  C10 <0> d   1      10.865  15.247 -18.879  0.00  0.00     0.030 A 
ATOM     33  C9  <0> d   1      10.546  14.408 -19.930  0.00  0.00     0.040 A 
ATOM     34  C8  <0> d   1       9.262  14.398 -20.442  0.00  0.00     0.010 A 
ATOM     35  C7  <0> d   1       8.292  15.220 -19.900  0.00  0.00     0.050 A 
ATOM     36  C6  <0> d   1       8.602  16.056 -18.846  0.00  0.00     0.000 A 
ENDBRANCH  29  31
ENDBRANCH   1  22
TORSDOF 4
ENDMDL
MODEL 8
REMARK VINA RESULT:      -8.3      1.477      2.163
REMARK  4 active torsions:
REMARK  status: ('A' for Active; 'I' for Inactive)
REMARK    1  A    between atoms: N4_4  and  C5_5 
REMARK    2  A    between atoms: C14_14  and  C15_15 
REMARK       I    between atoms: C15_15  and  N17_17 
REMARK    3  A    between atoms: N17_17  and  C18_18 
REMARK    4  A    between atoms: C20_20  and  C21_21 
ROOT
ATOM      1  C15 <0> d   1       7.238  10.854 -13.213  0.00  0.00     0.600 C 
ATOM      2  O16 <0> d   1       7.954  10.020 -13.736  0.00  0.00    -0.490 OA
ATOM      3  N17 <0> d   1       6.532  11.711 -13.977  0.00  0.00    -0.670 N 
ATOM      4  H45 <0> d   1       5.905  12.325 -13.565  0.00  0.00     0.410 HD
ENDROOT
BRANCH   3   5
ATOM      5  C18 <0> d   1       6.702  11.713 -15.366  0.00  0.00     0.120 A 
ATOM      6  C33 <0> d   1       5.767  11.084 -16.184  0.00  0.00     0.090 A 
ATOM      7  C32 <0> d   1       5.928  11.089 -17.558  0.00  0.00     0.020 A 
ATOM      8  F34 <0> d   1       4.691  10.477 -15.634  0.00  0.00    -0.130 F 
ATOM      9  C31 <0> d   1       7.024  11.707 -18.125  0.00  0.00     0.040 A 
ATOM     10  C20 <0> d   1       7.970  12.335 -17.313  0.00  0.00     0.000 A 
ATOM     11  C19 <0> d   1       7.805  12.335 -15.928  0.00  0.00     0.110 A 
BRANCH  10  12
ATOM     12  C21 <0> d   1       9.145  12.998 -17.920  0.00  0.00     0.210 A 
ATOM     13  N30 <0> d   1       9.184  14.249 -18.464  0.00  0.00    -0.470 N 
ATOM     14  C24 <0> d   1      10.458  14.427 -18.904  0.00  0.00     0.190 A 
ATOM     15  C29 <0> d   1       8.091  15.217 -18.542  0.00  0.00     0.280 C 
ATOM     16  N23 <0> d   1      11.126  13.344 -18.623  0.00  0.00    -0.290 NA
ATOM     17  C25 <0> d   1      10.973  15.658 -19.605  0.00  0.00     0.160 C 
ATOM     18  N22 <0> d   1      10.354  12.492 -18.043  0.00  0.00    -0.270 NA
ATOM     19  C26 <0> d   1      10.519  16.901 -18.834  0.00  0.00     0.020 C 
ATOM     20  C27 <0> d   1       9.147  17.342 -19.335  0.00  0.00     0.020 C 
ATOM     21  C28 <0> d   1       8.312  16.132 -19.751  0.00  0.00     0.030 C 
ENDBRANCH  10  12
ENDBRANCH   3   5
BRANCH   1  22
ATOM     22  C14 <0> d   1       7.145  10.928 -11.752  0.00  0.00    -0.280 A 
ATOM     23  C13 <0> d   1       6.053  11.310 -11.073  0.00  0.00     0.200 A 
ATOM     24  C12 <0> d   1       6.185  11.308  -9.678  0.00  0.00    -0.220 A 
ATOM     25  C2  <0> d   1       5.431  11.604  -8.498  0.00  0.00     0.150 A 
ATOM     26  C11 <0> d   1       7.440  10.905  -9.253  0.00  0.00     0.030 A 
ATOM     27  C1  <0> d   1       4.004  12.085  -8.465  0.00  0.00     0.180 C 
ATOM     28  N3  <0> d   1       6.182  11.382  -7.461  0.00  0.00    -0.250 NA
ATOM     29  N4  <0> d   1       7.441  10.946  -7.884  0.00  0.00    -0.300 N 
ATOM     30  S35 <0> d   1       8.447  10.526 -10.644  0.00  0.00     0.200 SA
BRANCH  29  31
ATOM     31  C5  <0> d   1       8.516  10.610  -7.051  0.00  0.00     0.150 A 
ATOM     32  C10 <0> d   1       9.083   9.345  -7.121  0.00  0.00     0.030 A 
ATOM     33  C9  <0> d   1      10.148   9.020  -6.303  0.00  0.00     0.040 A 
ATOM     34  C8  <0> d   1      10.640   9.950  -5.405  0.00  0.00     0.010 A 
ATOM     35  C7  <0> d   1      10.074  11.208  -5.328  0.00  0.00     0.050 A 
ATOM     36  C6  <0> d   1       9.013  11.542  -6.147  0.00  0.00     0.000 A 
ENDBRANCH  29  31
ENDBRANCH   1  22
TORSDOF 4
ENDMDL
MODEL 9
REMARK VINA RESULT:      -8.2      3.663     10.931
REMARK  4 active torsions:
REMARK  status: ('A' for Active; 'I' for Inactive)
REMARK    1  A    between atoms: N4_4  and  C5_5 
REMARK    2  A    between atoms: C14_14  and  C15_15 
REMARK       I    between atoms: C15_15  and  N17_17 
REMARK    3  A    between atoms: N17_17  and  C18_18 
REMARK    4  A    between atoms: C20_20  and  C21_21 
ROOT
ATOM      1  C15 <0> d   1       8.357  15.708 -14.000  0.00  0.00     0.600 C 
ATOM      2  O16 <0> d   1       7.389  16.408 -13.767  0.00  0.00    -0.490 OA
ATOM      3  N17 <0> d   1       8.793  14.831 -13.075  0.00  0.00    -0.670 N 
ATOM      4  H45 <0> d   1       9.517  14.222 -13.287  0.00  0.00     0.410 HD
ENDROOT
BRANCH   3   5
ATOM      5  C18 <0> d   1       8.200  14.797 -11.807  0.00  0.00     0.120 A 
ATOM      6  C33 <0> d   1       8.658  15.644 -10.801  0.00  0.00     0.090 A 
ATOM      7  C32 <0> d   1       8.071  15.618  -9.549  0.00  0.00     0.020 A 
ATOM      8  F34 <0> d   1       9.671  16.502 -11.052  0.00  0.00    -0.130 F 
ATOM      9  C31 <0> d   1       7.036  14.743  -9.286  0.00  0.00     0.040 A 
ATOM     10  C20 <0> d   1       6.574  13.887 -10.287  0.00  0.00     0.000 A 
ATOM     11  C19 <0> d   1       7.162  13.916 -11.551  0.00  0.00     0.110 A 
BRANCH  10  12
ATOM     12  C21 <0> d   1       5.465  12.949 -10.006  0.00  0.00     0.210 A 
ATOM     13  N30 <0> d   1       5.314  12.177  -8.890  0.00  0.00    -0.470 N 
ATOM     14  C24 <0> d   1       4.165  11.474  -9.073  0.00  0.00     0.190 A 
ATOM     15  C29 <0> d   1       6.188  12.129  -7.720  0.00  0.00     0.280 C 
ATOM     16  N23 <0> d   1       3.671  11.823 -10.228  0.00  0.00    -0.290 NA
ATOM     17  C25 <0> d   1       3.599  10.463  -8.108  0.00  0.00     0.160 C 
ATOM     18  N22 <0> d   1       4.436  12.694 -10.787  0.00  0.00    -0.270 NA
ATOM     19  C26 <0> d   1       3.617  11.055  -6.696  0.00  0.00     0.020 C 
ATOM     20  C27 <0> d   1       4.957  10.754  -6.032  0.00  0.00     0.020 C 
ATOM     21  C28 <0> d   1       6.081  10.747  -7.066  0.00  0.00     0.030 C 
ENDBRANCH  10  12
ENDBRANCH   3   5
BRANCH   1  22
ATOM     22  C14 <0> d   1       9.050  15.822 -15.287  0.00  0.00    -0.280 A 
ATOM     23  C13 <0> d   1       9.425  16.978 -15.854  0.00  0.00     0.200 A 
ATOM     24  C12 <0> d   1      10.075  16.856 -17.090  0.00  0.00    -0.220 A 
ATOM     25  C2  <0> d   1      10.659  17.665 -18.114  0.00  0.00     0.150 A 
ATOM     26  C11 <0> d   1      10.211  15.540 -17.501  0.00  0.00     0.030 A 
ATOM     27  C1  <0> d   1      10.742  19.170 -18.105  0.00  0.00     0.180 C 
ATOM     28  N3  <0> d   1      11.113  16.886 -19.049  0.00  0.00    -0.250 NA
ATOM     29  N4  <0> d   1      10.856  15.555 -18.710  0.00  0.00    -0.300 N 
ATOM     30  S35 <0> d   1       9.509  14.464 -16.301  0.00  0.00     0.200 SA
BRANCH  29  31
ATOM     31  C5  <0> d   1      11.197  14.431 -19.474  0.00  0.00     0.150 A 
ATOM     32  C10 <0> d   1      12.331  13.694 -19.161  0.00  0.00     0.030 A 
ATOM     33  C9  <0> d   1      12.660  12.583 -19.913  0.00  0.00     0.040 A 
ATOM     34  C8  <0> d   1      11.869  12.214 -20.985  0.00  0.00     0.010 A 
ATOM     35  C7  <0> d   1      10.743  12.949 -21.303  0.00  0.00     0.050 A 
ATOM     36  C6  <0> d   1      10.404  14.057 -20.552  0.00  0.00     0.000 A 
ENDBRANCH  29  31
ENDBRANCH   1  22
TORSDOF 4
ENDMDL
