REMARK  15 active torsions:
REMARK  status: ('A' for Active; 'I' for Inactive)
REMARK    1  A    between atoms: C2_2  and  C4_4 
REMARK    2  A    between atoms: C4_4  and  N5_5 
REMARK    3  A    between atoms: N5_5  and  C6_6 
REMARK    4  A    between atoms: N5_5  and  S29_26 
REMARK    5  A    between atoms: C6_6  and  C7_7 
REMARK    6  A    between atoms: C7_7  and  O9_8 
REMARK    7  A    between atoms: C7_7  and  C10_9 
REMARK    8  A    between atoms: C10_9  and  C12_10 
REMARK    9  A    between atoms: C10_9  and  N19_17 
REMARK   10  A    between atoms: C12_10  and  C13_11 
REMARK   11  A    between atoms: N19_17  and  C20_18 
REMARK   12  A    between atoms: C20_18  and  O22_20 
REMARK   13  A    between atoms: O22_20  and  C23_21 
REMARK   14  A    between atoms: S29_26  and  C32_29 
REMARK   15  A    between atoms: C35_32  and  N36_33 
ROOT
ATOM      1  C7  ZIN A   1      -2.566  -1.873   2.791  0.00  0.00     0.190 C 
ENDROOT
BRANCH   1   2
ATOM      2  C6  ZIN A   1      -1.271  -2.082   2.002  0.00  0.00     0.280 C 
BRANCH   2   3
ATOM      3  N5  ZIN A   1      -1.454  -1.603   0.629  0.00  0.00    -0.990 N 
BRANCH   3   4
ATOM      4  C4  ZIN A   1      -1.275  -0.183   0.319  0.00  0.00     0.310 C 
BRANCH   4   5
ATOM      5  C2  ZIN A   1       0.202   0.094   0.030  0.00  0.00    -0.050 C 
ATOM      6  C1  ZIN A   1       0.368   1.540  -0.440  0.00  0.00     0.030 C 
ATOM      7  C3  ZIN A   1       1.020  -0.125   1.304  0.00  0.00     0.020 C 
ENDBRANCH   4   5
ENDBRANCH   3   4
BRANCH   3   8
ATOM      8  S29 ZIN A   1      -1.862  -2.668  -0.571  0.00  0.00     2.700 S 
ATOM      9  O30 ZIN A   1      -2.487  -3.773   0.068  0.00  0.00    -0.950 OA
ATOM     10  O31 ZIN A   1      -2.490  -1.902  -1.590  0.00  0.00    -0.960 OA
BRANCH   8  11
ATOM     11  C32 ZIN A   1      -0.360  -3.277  -1.262  0.00  0.00    -0.740 A 
ATOM     12  C38 ZIN A   1       0.230  -4.413  -0.737  0.00  0.00     0.170 A 
ATOM     13  C37 ZIN A   1       1.405  -4.896  -1.279  0.00  0.00    -0.090 A 
ATOM     14  C35 ZIN A   1       2.000  -4.234  -2.345  0.00  0.00     0.270 A 
ATOM     15  C34 ZIN A   1       1.407  -3.091  -2.866  0.00  0.00    -0.090 A 
ATOM     16  C33 ZIN A   1       0.230  -2.616  -2.323  0.00  0.00     0.170 A 
BRANCH  14  17
ATOM     17  N36 ZIN A   1       3.191  -4.717  -2.892  0.00  0.00    -0.870 N 
ATOM     18  H67 ZIN A   1       3.606  -4.253  -3.636  0.00  0.00     0.400 HD
ATOM     19  H68 ZIN A   1       3.603  -5.515  -2.527  0.00  0.00     0.400 HD
ENDBRANCH  14  17
ENDBRANCH   8  11
ENDBRANCH   3   8
ENDBRANCH   2   3
ENDBRANCH   1   2
BRANCH   1  20
ATOM     20  O9  ZIN A   1      -3.598  -2.693   2.238  0.00  0.00    -0.550 OA
ATOM     21  H50 ZIN A   1      -3.401  -3.640   2.258  0.00  0.00     0.390 HD
ENDBRANCH   1  20
BRANCH   1  22
ATOM     22  C10 ZIN A   1      -2.338  -2.256   4.254  0.00  0.00     0.240 C 
BRANCH  22  23
ATOM     23  C12 ZIN A   1      -2.043  -3.755   4.349  0.00  0.00     0.060 C 
BRANCH  23  24
ATOM     24  C13 ZIN A   1      -1.699  -4.109   5.773  0.00  0.00    -0.060 A 
ATOM     25  C18 ZIN A   1      -2.697  -4.485   6.652  0.00  0.00     0.000 A 
ATOM     26  C17 ZIN A   1      -2.380  -4.815   7.957  0.00  0.00     0.000 A 
ATOM     27  C16 ZIN A   1      -1.067  -4.760   8.384  0.00  0.00     0.000 A 
ATOM     28  C15 ZIN A   1      -0.069  -4.379   7.506  0.00  0.00     0.010 A 
ATOM     29  C14 ZIN A   1      -0.385  -4.053   6.201  0.00  0.00     0.000 A 
ENDBRANCH  23  24
ENDBRANCH  22  23
BRANCH  22  30
ATOM     30  N19 ZIN A   1      -3.539  -1.945   5.033  0.00  0.00    -0.700 N 
ATOM     31  H58 ZIN A   1      -4.405  -1.907   4.596  0.00  0.00     0.410 HD
BRANCH  30  32
ATOM     32  C20 ZIN A   1      -3.442  -1.710   6.357  0.00  0.00     0.650 C 
ATOM     33  O21 ZIN A   1      -2.359  -1.757   6.904  0.00  0.00    -0.550 OA
BRANCH  32  34
ATOM     34  O22 ZIN A   1      -4.546  -1.424   7.072  0.00  0.00    -0.360 OA
BRANCH  34  35
ATOM     35  C23 ZIN A   1      -4.367  -1.183   8.493  0.00  0.00     0.190 C 
ATOM     36  C28 ZIN A   1      -4.596  -2.477   9.303  0.00  0.00     0.200 C 
ATOM     37  O27 ZIN A   1      -5.329  -2.120  10.485  0.00  0.00    -0.380 OA
ATOM     38  C26 ZIN A   1      -5.546  -0.700  10.519  0.00  0.00     0.220 C 
ATOM     39  C25 ZIN A   1      -5.478  -0.245   9.039  0.00  0.00     0.030 C 
ENDBRANCH  34  35
ENDBRANCH  32  34
ENDBRANCH  30  32
ENDBRANCH  22  30
ENDBRANCH   1  22
TORSDOF 14
