REMARK  7 active torsions:
REMARK  status: ('A' for Active; 'I' for Inactive)
REMARK    1  A    between atoms: O1_2  and  C2_3 
REMARK    2  A    between atoms: C5_6  and  C6_7 
REMARK    3  A    between atoms: C6_7  and  N1_8 
REMARK    4  A    between atoms: C12_14  and  O2_15 
REMARK    5  A    between atoms: C12_14  and  C13_16 
REMARK    6  A    between atoms: C15_19  and  O3_20 
REMARK    7  A    between atoms: C17_23  and  O4_24 
ROOT
ATOM      1  N1  non d   1       1.211  -2.305   0.240  0.00  0.00     0.093 N 
ATOM      2  C7  non d   1       0.653  -3.395   0.952  0.00  0.00     0.278 C 
ATOM      3  C8  non d   1      -0.892  -3.433   0.453  0.00  0.00     0.023 C 
ATOM      4  C9  non d   1      -0.506  -3.383  -1.121  0.00  0.00     0.007 C 
ATOM      5  C10 non d   1      -1.666  -3.019  -1.942  0.00  0.00     0.004 C 
ATOM      6  C11 non d   1      -1.815  -1.510  -1.650  0.00  0.00     0.043 C 
ATOM      7  C12 non d   1      -2.264  -1.486  -0.273  0.00  0.00     0.096 C 
ATOM      8  C19 non d   1      -1.026  -1.748   0.760  0.00  0.00     0.059 C 
ATOM      9  C20 non d   1       0.227  -1.398  -0.206  0.00  0.00     0.281 C 
ENDROOT
BRANCH   7  10
ATOM     10  O2  non d   1      -3.129  -2.588  -0.004  0.00  0.00    -0.384 OA
ATOM     11  H17 non d   1      -3.218  -2.701   0.945  0.00  0.00     0.211 HD
ENDBRANCH   7  10
BRANCH   7  12
ATOM     12  C13 non d   1      -2.982  -0.285   0.193  0.00  0.00     0.047 A 
ATOM     13  C14 non d   1      -4.221  -0.434   0.772  0.00  0.00     0.135 A 
ATOM     14  N2  non d   1      -4.880   0.640   1.209  0.00  0.00    -0.219 NA
ATOM     15  C15 non d   1      -4.412   1.896   1.126  0.00  0.00     0.270 A 
ATOM     16  N3  non d   1      -3.205   2.041   0.562  0.00  0.00    -0.182 NA
ATOM     17  C17 non d   1      -2.483   1.002   0.097  0.00  0.00     0.178 A 
BRANCH  15  18
ATOM     18  O3  non d   1      -5.148   2.987   1.603  0.00  0.00    -0.324 OA
ATOM     19  C16 non d   1      -4.627   4.277   1.498  0.00  0.00     0.213 C 
ENDBRANCH  15  18
BRANCH  17  20
ATOM     20  O4  non d   1      -1.226   1.221  -0.485  0.00  0.00    -0.339 OA
ATOM     21  C18 non d   1      -0.717   2.517  -0.584  0.00  0.00     0.211 C 
ENDBRANCH  17  20
ENDBRANCH   7  12
BRANCH   1  22
ATOM     22  C6  non d   1       2.310  -1.712   0.925  0.00  0.00     0.311 C 
BRANCH  22  23
ATOM     23  C5  non d   1       2.925  -0.576   0.200  0.00  0.00    -0.024 A 
ATOM     24  C4  non d   1       2.485  -0.133  -1.021  0.00  0.00     0.012 A 
ATOM     25  C3  non d   1       3.104   0.928  -1.642  0.00  0.00     0.038 A 
ATOM     26  C2  non d   1       4.183   1.571  -1.047  0.00  0.00     0.074 A 
ATOM     27  C23 non d   1       4.640   1.137   0.184  0.00  0.00    -0.022 A 
ATOM     28  C21 non d   1       4.004   0.074   0.785  0.00  0.00    -0.045 A 
ATOM     29  C24 non d   1       5.807   1.818   0.847  0.00  0.00     0.052 C 
ATOM     30  C22 non d   1       4.479  -0.408   2.109  0.00  0.00     0.049 C 
BRANCH  26  31
ATOM     31  O1  non d   1       4.793   2.627  -1.673  0.00  0.00    -0.355 OA
ATOM     32  C1  non d   1       4.380   3.078  -2.869  0.00  0.00     0.210 C 
ENDBRANCH  26  31
ENDBRANCH  22  23
ENDBRANCH   1  22
TORSDOF 7
