REMARK  15 active torsions:
REMARK  status: ('A' for Active; 'I' for Inactive)
REMARK    1  A    between atoms: C2_2  and  C3_3 
REMARK    2  A    between atoms: C3_3  and  C4_4 
REMARK    3  A    between atoms: C7_7  and  O8_8 
REMARK    4  A    between atoms: O8_8  and  C9_9 
REMARK    5  A    between atoms: C9_9  and  C10_10 
REMARK    6  A    between atoms: C10_10  and  O11_11 
REMARK    7  A    between atoms: O11_11  and  C12_12 
REMARK    8  A    between atoms: C16_16  and  C17_17 
REMARK    9  A    between atoms: N18_18  and  N19_19 
REMARK   10  A    between atoms: N19_19  and  C20_20 
REMARK   11  A    between atoms: C22_22  and  N23_23 
REMARK   12  A    between atoms: C30_30  and  N31_31 
REMARK   13  A    between atoms: C39_39  and  O40_40 
REMARK   14  A    between atoms: O40_40  and  C41_41 
REMARK   15  A    between atoms: C43_43  and  O44_44 
ROOT
ATOM      1  C12 ZIN A   1       2.330  -7.585   7.069  0.00  0.00     0.060 A 
ATOM      2  C13 ZIN A   1       3.394  -7.527   7.958  0.00  0.00    -0.020 A 
ATOM      3 Cl14 ZIN A   1       4.498  -6.188   7.900  0.00  0.00    -0.060 Cl
ATOM      4  C15 ZIN A   1       3.577  -8.530   8.888  0.00  0.00     0.040 A 
ATOM      5  C16 ZIN A   1       2.688  -9.609   8.935  0.00  0.00     0.030 A 
ATOM      6  C38 ZIN A   1       1.615  -9.666   8.038  0.00  0.00    -0.050 A 
ATOM      7  C39 ZIN A   1       1.437  -8.654   7.114  0.00  0.00     0.130 A 
ENDROOT
BRANCH   5   8
ATOM      8  C17 ZIN A   1       2.879 -10.679   9.925  0.00  0.00     0.170 C 
ATOM      9  N18 ZIN A   1       3.882 -10.624  10.763  0.00  0.00    -0.270 NA
BRANCH   9  10
ATOM     10  N19 ZIN A   1       4.050 -11.563  11.631  0.00  0.00    -0.450 NA
BRANCH  10  11
ATOM     11  C20 ZIN A   1       5.075 -11.506  12.488  0.00  0.00     0.450 A 
ATOM     12  N37 ZIN A   1       5.934 -10.470  12.447  0.00  0.00    -0.590 NA
ATOM     13  C30 ZIN A   1       6.943 -10.397  13.286  0.00  0.00     0.650 A 
ATOM     14  N29 ZIN A   1       7.162 -11.369  14.216  0.00  0.00    -0.660 N 
ATOM     15  C22 ZIN A   1       6.320 -12.450  14.297  0.00  0.00     0.450 A 
ATOM     16  H71 ZIN A   1       7.915 -11.297  14.822  0.00  0.00     0.410 HD
ATOM     17  C21 ZIN A   1       5.265 -12.535  13.436  0.00  0.00    -0.140 A 
BRANCH  13  18
ATOM     18  N31 ZIN A   1       7.796  -9.325  13.220  0.00  0.00    -0.590 N 
ATOM     19  C36 ZIN A   1       7.522  -8.206  12.309  0.00  0.00     0.310 C 
ATOM     20  C35 ZIN A   1       8.748  -7.967  11.430  0.00  0.00     0.010 C 
ATOM     21  C34 ZIN A   1       9.979  -7.769  12.319  0.00  0.00     0.020 C 
ATOM     22  C33 ZIN A   1      10.217  -9.030  13.152  0.00  0.00     0.010 C 
ATOM     23  C32 ZIN A   1       9.004  -9.278  14.054  0.00  0.00     0.260 C 
ENDBRANCH  13  18
BRANCH  15  24
ATOM     24  N23 ZIN A   1       6.537 -13.435  15.235  0.00  0.00    -0.620 N 
ATOM     25  C28 ZIN A   1       7.129 -13.110  16.540  0.00  0.00     0.270 C 
ATOM     26  C27 ZIN A   1       8.343 -14.006  16.773  0.00  0.00     0.010 C 
ATOM     27  C26 ZIN A   1       7.929 -15.472  16.618  0.00  0.00     0.020 C 
ATOM     28  C25 ZIN A   1       7.416 -15.711  15.197  0.00  0.00     0.010 C 
ATOM     29  C24 ZIN A   1       6.186 -14.833  14.947  0.00  0.00     0.300 C 
ENDBRANCH  15  24
ENDBRANCH  10  11
ENDBRANCH   9  10
ENDBRANCH   5   8
BRANCH   7  30
ATOM     30  O40 ZIN A   1       0.396  -8.706   6.240  0.00  0.00    -0.300 OA
BRANCH  30  31
ATOM     31  C41 ZIN A   1      -0.474  -9.836   6.335  0.00  0.00     0.170 C 
ATOM     32  C42 ZIN A   1      -1.576  -9.720   5.281  0.00  0.00     0.070 C 
ENDBRANCH  30  31
ENDBRANCH   7  30
BRANCH   1  33
ATOM     33  O11 ZIN A   1       2.155  -6.593   6.155  0.00  0.00    -0.300 OA
BRANCH  33  34
ATOM     34  C10 ZIN A   1       1.349  -5.481   6.550  0.00  0.00     0.210 C 
BRANCH  34  35
ATOM     35  C9  ZIN A   1       1.268  -4.476   5.400  0.00  0.00     0.210 C 
BRANCH  35  36
ATOM     36  O8  ZIN A   1       0.579  -5.069   4.297  0.00  0.00    -0.290 OA
BRANCH  36  37
ATOM     37  C7  ZIN A   1       0.420  -4.302   3.185  0.00  0.00     0.100 A 
ATOM     38  C6  ZIN A   1       0.915  -3.009   3.156  0.00  0.00    -0.040 A 
ATOM     39  C5  ZIN A   1       0.751  -2.231   2.025  0.00  0.00     0.020 A 
ATOM     40  C4  ZIN A   1       0.095  -2.741   0.921  0.00  0.00    -0.080 A 
ATOM     41  C46 ZIN A   1      -0.407  -4.029   0.945  0.00  0.00    -0.040 A 
ATOM     42  C43 ZIN A   1      -0.242  -4.816   2.073  0.00  0.00     0.100 A 
BRANCH  40  43
ATOM     43  C3  ZIN A   1      -0.080  -1.889  -0.310  0.00  0.00     0.110 C 
BRANCH  43  44
ATOM     44  C2  ZIN A   1      -1.369  -1.115  -0.206  0.00  0.00    -0.040 C 
ATOM     45  C1  ZIN A   1      -1.362   0.189  -0.323  0.00  0.00     0.010 C 
ENDBRANCH  43  44
ENDBRANCH  40  43
BRANCH  42  46
ATOM     46  O44 ZIN A   1      -0.730  -6.085   2.096  0.00  0.00    -0.300 OA
ATOM     47  C45 ZIN A   1      -1.398  -6.545   0.919  0.00  0.00     0.230 C 
ENDBRANCH  42  46
ENDBRANCH  36  37
ENDBRANCH  35  36
ENDBRANCH  34  35
ENDBRANCH  33  34
ENDBRANCH   1  33
TORSDOF 15
