REMARK  5 active torsions:
REMARK  status: ('A' for Active; 'I' for Inactive)
REMARK    1  A    between atoms: O1_2  and  C2_3 
REMARK    2  A    between atoms: C7_8  and  N1_9 
REMARK       I    between atoms: N1_9  and  C8_10 
REMARK    3  A    between atoms: C8_10  and  C9_12 
REMARK    4  A    between atoms: C12_16  and  N2_17 
REMARK       I    between atoms: N2_17  and  C13_18 
REMARK    5  A    between atoms: C13_18  and  C14_20 
ROOT
ATOM      1  C9  non d   1      -2.002  -0.819  -1.092  0.00  0.00     0.100 C 
ATOM      2  C10 non d   1      -0.727  -0.859  -1.520  0.00  0.00     0.022 C 
ATOM      3  C11 non d   1      -0.280  -1.258  -2.891  0.00  0.00     0.134 C 
ATOM      4  S1  non d   1       0.890  -2.561  -2.363  0.00  0.00    -0.117 SA
ATOM      5  C12 non d   1       1.377  -1.718  -0.703  0.00  0.00     0.249 C 
ATOM      6  N4  non d   1       0.419  -0.538  -0.832  0.00  0.00    -0.363 N 
ATOM      7  H18 non d   1       0.536   0.402  -0.481  0.00  0.00     0.162 HD
ENDROOT
BRANCH   1   8
ATOM      8  C8  non d   1      -2.377  -0.421   0.252  0.00  0.00     0.247 C 
ATOM      9  N1  non d   1      -3.756  -0.422   0.578  0.00  0.00    -0.321 N 
ATOM     10  H8  non d   1      -4.417  -0.696  -0.135  0.00  0.00     0.169 HD
ATOM     11  O2  non d   1      -1.535  -0.085   1.115  0.00  0.00    -0.268 OA
BRANCH   9  12
ATOM     12  C7  non d   1      -4.285  -0.069   1.821  0.00  0.00     0.068 A 
ATOM     13  C6  non d   1      -3.494   0.330   2.867  0.00  0.00     0.032 A 
ATOM     14  C5  non d   1      -4.030   0.678   4.091  0.00  0.00     0.002 A 
ATOM     15  C4  non d   1      -5.387   0.634   4.298  0.00  0.00     0.003 A 
ATOM     16  C3  non d   1      -6.200   0.227   3.232  0.00  0.00     0.039 A 
ATOM     17  C2  non d   1      -5.643  -0.113   2.027  0.00  0.00     0.095 A 
BRANCH  17  18
ATOM     18  O1  non d   1      -6.504  -0.514   0.990  0.00  0.00    -0.354 OA
ATOM     19  C1  non d   1      -7.223  -0.644   0.768  0.00  0.00     0.210 C 
ENDBRANCH  17  18
ENDBRANCH   9  12
ENDBRANCH   1   8
BRANCH   5  20
ATOM     20  N2  non d   1       2.597  -1.000  -1.299  0.00  0.00    -0.327 N 
ATOM     21  C13 non d   1       3.374  -0.169  -0.488  0.00  0.00     0.255 C 
ATOM     22  O3  non d   1       3.127   0.023   0.707  0.00  0.00    -0.268 OA
ATOM     23  H13 non d   1       2.900  -1.077  -2.260  0.00  0.00     0.165 HD
BRANCH  21  24
ATOM     24  C14 non d   1       4.540   0.499  -1.102  0.00  0.00     0.046 A 
ATOM     25  C15 non d   1       4.832   0.315  -2.374  0.00  0.00     0.001 A 
ATOM     26  C16 non d   1       5.983   0.956  -3.043  0.00  0.00     0.133 A 
ATOM     27  C17 non d   1       6.781   1.819  -2.142  0.00  0.00     0.246 A 
ATOM     28  O4  non d   1       7.782   2.396  -2.630  0.00  0.00    -0.271 OA
ATOM     29  N3  non d   1       6.378   1.947  -0.795  0.00  0.00    -0.225 NA
ATOM     30  C18 non d   1       5.361   1.365  -0.267  0.00  0.00     0.137 A 
ENDBRANCH  21  24
ENDBRANCH   5  20
TORSDOF 5
