REMARK  8 active torsions:
REMARK  status: ('A' for Active; 'I' for Inactive)
REMARK       I    between atoms: N2_2  and  C3_3 
REMARK       I    between atoms: C3_3  and  N5_5 
REMARK       I    between atoms: N5_5  and  C6_6 
REMARK    1  A    between atoms: C6_6  and  C8_8 
REMARK    2  A    between atoms: C8_8  and  C9_9 
REMARK    3  A    between atoms: C9_9  and  S10_10 
REMARK    4  A    between atoms: S10_10  and  C11_11 
REMARK    5  A    between atoms: C11_11  and  C12_12 
REMARK    6  A    between atoms: C12_12  and  C13_13 
REMARK    7  A    between atoms: C13_13  and  O14_14 
REMARK    8  A    between atoms: O14_14  and  C15_15 
ROOT
ATOM      1  S10 ZIN A   1       2.010  -6.522   3.219  0.00  0.00    -0.250 SA
ENDROOT
BRANCH   1   2
ATOM      2  C9  ZIN A   1       1.985  -4.708   3.229  0.00  0.00     0.100 C 
BRANCH   2   3
ATOM      3  C8  ZIN A   1       1.245  -4.201   1.989  0.00  0.00     0.100 C 
BRANCH   3   4
ATOM      4  C6  ZIN A   1       1.225  -2.694   1.998  0.00  0.00     0.520 C 
ATOM      5  N5  ZIN A   1       0.623  -2.023   0.996  0.00  0.00    -0.690 N 
ATOM      6  C3  ZIN A   1       0.604  -0.675   1.004  0.00  0.00     0.690 C 
ATOM      7  H27 ZIN A   1       0.202  -2.510   0.270  0.00  0.00     0.410 HD
ATOM      8  N2  ZIN A   1       0.002  -0.004   0.002  0.00  0.00    -0.740 N 
ATOM      9  O4  ZIN A   1       1.131  -0.066   1.913  0.00  0.00    -0.530 OA
ATOM     10  C1  ZIN A   1      -0.018   1.461   0.010  0.00  0.00     0.300 C 
ATOM     11  H26 ZIN A   1      -0.418  -0.491  -0.724  0.00  0.00     0.400 HD
ATOM     12  O7  ZIN A   1       1.750  -2.086   2.905  0.00  0.00    -0.460 OA
ENDBRANCH   3   4
ENDBRANCH   2   3
ENDBRANCH   1   2
BRANCH   1  13
ATOM     13  C11 ZIN A   1       2.914  -6.926   4.739  0.00  0.00     0.100 C 
BRANCH  13  14
ATOM     14  C12 ZIN A   1       3.022  -8.446   4.879  0.00  0.00     0.080 C 
BRANCH  14  15
ATOM     15  C13 ZIN A   1       3.784  -8.787   6.161  0.00  0.00     0.210 C 
BRANCH  15  16
ATOM     16  O14 ZIN A   1       3.885 -10.206   6.292  0.00  0.00    -0.310 OA
BRANCH  16  17
ATOM     17  C15 ZIN A   1       4.539 -10.680   7.386  0.00  0.00     0.140 A 
ATOM     18  C22 ZIN A   1       4.674 -12.047   7.576  0.00  0.00    -0.030 A 
ATOM     19  C20 ZIN A   1       5.343 -12.526   8.686  0.00  0.00    -0.040 A 
ATOM     20  C19 ZIN A   1       5.867 -11.644   9.612  0.00  0.00    -0.040 A 
ATOM     21  C21 ZIN A   1       5.495 -14.012   8.890  0.00  0.00     0.090 C 
ATOM     22  C17 ZIN A   1       5.730 -10.281   9.427  0.00  0.00    -0.040 A 
ATOM     23  C16 ZIN A   1       5.066  -9.797   8.316  0.00  0.00    -0.090 A 
ATOM     24  C18 ZIN A   1       6.303  -9.322  10.439  0.00  0.00     0.090 C 
ENDBRANCH  16  17
ENDBRANCH  15  16
ENDBRANCH  14  15
ENDBRANCH  13  14
ENDBRANCH   1  13
TORSDOF 8
