REMARK  6 active torsions:
REMARK  status: ('A' for Active; 'I' for Inactive)
REMARK    1  A    between atoms: O2_2  and  C3_3 
REMARK    2  A    between atoms: C6_6  and  C7_7 
REMARK    3  A    between atoms: C7_7  and  N9_9 
REMARK    4  A    between atoms: N9_9  and  C10_10 
REMARK    5  A    between atoms: C14_14  and  N15_15 
REMARK    6  A    between atoms: C29_29  and  O30_30 
ROOT
ATOM      1  C10 ZIN A   1      -7.362  -2.527  -0.329  0.00  0.00     0.160 A 
ATOM      2  C11 ZIN A   1      -7.479  -3.877  -0.021  0.00  0.00     0.050 A 
ATOM      3  C12 ZIN A   1      -8.726  -4.433   0.191  0.00  0.00     0.050 A 
ATOM      4  C13 ZIN A   1      -9.860  -3.650   0.098  0.00  0.00     0.010 A 
ATOM      5  C14 ZIN A   1      -9.750  -2.299  -0.209  0.00  0.00     0.120 A 
ATOM      6  C27 ZIN A   1      -8.500  -1.736  -0.417  0.00  0.00     0.010 A 
ENDROOT
BRANCH   1   7
ATOM      7  N9  ZIN A   1      -6.100  -1.964  -0.543  0.00  0.00    -0.670 N 
ATOM      8  H37 ZIN A   1      -5.918  -1.057  -0.253  0.00  0.00     0.410 HD
BRANCH   7   9
ATOM      9  C7  ZIN A   1      -5.137  -2.683  -1.154  0.00  0.00     0.570 C 
ATOM     10  O8  ZIN A   1      -5.336  -3.848  -1.438  0.00  0.00    -0.510 OA
BRANCH   9  11
ATOM     11  C6  ZIN A   1      -3.841  -2.056  -1.476  0.00  0.00    -0.140 A 
ATOM     12  C5  ZIN A   1      -3.610  -0.718  -1.149  0.00  0.00     0.050 A 
ATOM     13  C4  ZIN A   1      -2.399  -0.133  -1.451  0.00  0.00    -0.030 A 
ATOM     14  C3  ZIN A   1      -1.406  -0.872  -2.079  0.00  0.00     0.140 A 
ATOM     15  C29 ZIN A   1      -1.631  -2.207  -2.413  0.00  0.00     0.090 A 
ATOM     16  C28 ZIN A   1      -2.841  -2.800  -2.109  0.00  0.00     0.040 A 
BRANCH  14  17
ATOM     17  O2  ZIN A   1      -0.214  -0.292  -2.374  0.00  0.00    -0.300 OA
ATOM     18  C1  ZIN A   1      -0.050   1.079  -2.004  0.00  0.00     0.250 C 
ENDBRANCH  14  17
BRANCH  15  19
ATOM     19  O30 ZIN A   1      -0.657  -2.928  -3.030  0.00  0.00    -0.300 OA
ATOM     20  C31 ZIN A   1      -0.952  -4.293  -3.333  0.00  0.00     0.250 C 
ENDBRANCH  15  19
ENDBRANCH   9  11
ENDBRANCH   7   9
ENDBRANCH   1   7
BRANCH   5  21
ATOM     21  N15 ZIN A   1     -10.901  -1.506  -0.303  0.00  0.00    -0.500 N 
ATOM     22  C25 ZIN A   1     -11.141  -0.556   0.632  0.00  0.00     0.560 A 
ATOM     23  C24 ZIN A   1     -12.360   0.249   0.479  0.00  0.00    -0.250 A 
ATOM     24  O26 ZIN A   1     -10.374  -0.374   1.560  0.00  0.00    -0.490 OA
ATOM     25  C19 ZIN A   1     -13.207  -0.021  -0.619  0.00  0.00     0.360 A 
ATOM     26  C23 ZIN A   1     -12.701   1.256   1.381  0.00  0.00     0.160 A 
ATOM     27  N18 ZIN A   1     -12.858  -1.004  -1.485  0.00  0.00    -0.510 NA
ATOM     28  N20 ZIN A   1     -14.321   0.685  -0.783  0.00  0.00    -0.470 NA
ATOM     29  C16 ZIN A   1     -11.771  -1.698  -1.329  0.00  0.00     0.430 A 
ATOM     30  C17 ZIN A   1     -11.459  -2.772  -2.339  0.00  0.00     0.180 C 
ATOM     31  C21 ZIN A   1     -14.660   1.639   0.059  0.00  0.00     0.340 A 
ATOM     32  C22 ZIN A   1     -13.874   1.956   1.157  0.00  0.00    -0.050 A 
ENDBRANCH   5  21
TORSDOF 5
