REMARK  5 active torsions:
REMARK  status: ('A' for Active; 'I' for Inactive)
REMARK    1  A    between atoms: C8_9  and  N1_10 
REMARK       I    between atoms: N1_10  and  C9_11 
REMARK    2  A    between atoms: C9_11  and  C10_13 
REMARK    3  A    between atoms: C10_13  and  C11_14 
REMARK    4  A    between atoms: C13_17  and  N2_18 
REMARK       I    between atoms: N2_18  and  C14_19 
REMARK    5  A    between atoms: C14_19  and  C15_21 
ROOT
ATOM      1  C1  non d   1      -2.571   0.075  -2.782  0.00  0.00     0.210 C 
ATOM      2  O1  non d   1      -3.134   0.016  -2.134  0.00  0.00    -0.354 OA
ATOM      3  C2  non d   1      -4.197  -0.076  -1.250  0.00  0.00     0.095 A 
ATOM      4  C3  non d   1      -5.492  -0.099  -1.780  0.00  0.00     0.039 A 
ATOM      5  C4  non d   1      -6.608  -0.193  -0.947  0.00  0.00     0.009 A 
ATOM      6  C5  non d   1      -6.450  -0.264   0.405  0.00  0.00    -0.060 A 
ATOM      7  C6  non d   1      -7.606  -0.371   1.354  0.00  0.00     0.048 C 
ATOM      8  C7  non d   1      -5.160  -0.240   0.909  0.00  0.00     0.039 A 
ATOM      9  C8  non d   1      -4.041  -0.147   0.104  0.00  0.00     0.069 A 
ENDROOT
BRANCH   9  10
ATOM     10  N1  non d   1      -2.716  -0.112   0.682  0.00  0.00    -0.321 N 
ATOM     11  C9  non d   1      -2.592  -0.124   2.086  0.00  0.00     0.247 C 
ATOM     12  O2  non d   1      -3.675  -0.173   2.755  0.00  0.00    -0.268 OA
ATOM     13  H10 non d   1      -1.884  -0.079   0.110  0.00  0.00     0.169 HD
BRANCH  11  14
ATOM     14  C10 non d   1      -1.368  -0.085   2.803  0.00  0.00     0.100 C 
BRANCH  14  15
ATOM     15  C11 non d   1      -0.210  -0.039   2.184  0.00  0.00     0.022 C 
ATOM     16  C12 non d   1       1.045   0.004   3.029  0.00  0.00     0.134 C 
ATOM     17  S1  non d   1       1.638   1.582   2.287  0.00  0.00    -0.117 SA
ATOM     18  C13 non d   1       1.049   1.140   0.485  0.00  0.00     0.249 C 
ATOM     19  N4  non d   1       0.182  -0.033   0.885  0.00  0.00    -0.363 N 
ATOM     20  H20 non d   1      -0.128  -0.794   0.298  0.00  0.00     0.162 HD
BRANCH  18  21
ATOM     21  N2  non d   1       2.337   0.302   0.235  0.00  0.00    -0.327 N 
ATOM     22  C14 non d   1       3.327   0.841  -0.596  0.00  0.00     0.255 C 
ATOM     23  O3  non d   1       3.083   1.976  -1.089  0.00  0.00    -0.268 OA
ATOM     24  H15 non d   1       2.533  -0.611   0.621  0.00  0.00     0.165 HD
BRANCH  22  25
ATOM     25  C15 non d   1       4.589   0.187  -0.914  0.00  0.00     0.046 A 
ATOM     26  C16 non d   1       4.917  -1.006  -0.432  0.00  0.00     0.001 A 
ATOM     27  C17 non d   1       6.173  -1.727  -0.709  0.00  0.00     0.133 A 
ATOM     28  C18 non d   1       7.080  -1.031  -1.648  0.00  0.00     0.246 A 
ATOM     29  O4  non d   1       8.156  -1.568  -1.994  0.00  0.00    -0.271 OA
ATOM     30  N3  non d   1       6.675   0.249  -2.126  0.00  0.00    -0.225 NA
ATOM     31  C19 non d   1       5.570   0.789  -1.803  0.00  0.00     0.137 A 
ENDBRANCH  22  25
ENDBRANCH  18  21
ENDBRANCH  14  15
ENDBRANCH  11  14
ENDBRANCH   9  10
TORSDOF 5
