REMARK  3 active torsions:
REMARK  status: ('A' for Active; 'I' for Inactive)
REMARK    1  A    between atoms: C6_8  and  C7_9 
REMARK       I    between atoms: C7_9  and  N3_11 
REMARK    2  A    between atoms: N3_11  and  C8_12 
REMARK    3  A    between atoms: C10_14  and  C11_15 
ROOT
ATOM      1  C8  non d   1      -0.471  -1.040  -1.189  0.00  0.00     0.042 A 
ATOM      2  C9  non d   1      -1.306  -0.342  -0.347  0.00  0.00     0.045 A 
ATOM      3  C10 non d   1      -2.678  -0.455  -0.435  0.00  0.00     0.014 A 
ATOM      4  C18 non d   1      -3.189  -1.297  -1.400  0.00  0.00     0.016 A 
ATOM      5  C19 non d   1      -2.366  -2.000  -2.248  0.00  0.00     0.010 A 
ATOM      6  C20 non d   1      -0.998  -1.878  -2.149  0.00  0.00    -0.035 A 
ATOM      7  C21 non d   1      -0.056  -2.619  -3.045  0.00  0.00     0.050 C 
ENDROOT
BRANCH   1   8
ATOM      8  N3  non d   1       0.963  -0.924  -1.098  0.00  0.00    -0.320 N 
ATOM      9  C7  non d   1       1.548  -0.071  -0.122  0.00  0.00     0.296 C 
ATOM     10  O1  non d   1       0.765   0.556   0.635  0.00  0.00    -0.264 OA
ATOM     11  H8  non d   1       1.563  -1.443  -1.724  0.00  0.00     0.169 HD
BRANCH   9  12
ATOM     12  C6  non d   1       3.008   0.071  -0.003  0.00  0.00     0.256 A 
ATOM     13  N2  non d   1       3.921  -0.556  -0.764  0.00  0.00    -0.126 NA
ATOM     14  N1  non d   1       5.145  -0.212  -0.402  0.00  0.00    -0.062 N 
ATOM     15  C4  non d   1       6.364  -0.563  -0.851  0.00  0.00     0.052 A 
ATOM     16  C22 non d   1       5.003   0.659   0.619  0.00  0.00     0.752 A 
ATOM     17  C3  non d   1       7.479  -0.017  -0.249  0.00  0.00     0.055 A 
ATOM     18  C5  non d   1       6.527  -1.521  -1.974  0.00  0.00     0.071 C 
ATOM     19  C2  non d   1       7.354   0.887   0.810  0.00  0.00     0.051 A 
ATOM     20  C1  non d   1       8.557   1.454   1.433  0.00  0.00     0.071 C 
ATOM     21  N8  non d   1       6.114   1.189   1.202  0.00  0.00    -0.066 NA
ATOM     22  N7  non d   1       3.691   0.832   0.863  0.00  0.00    -0.033 NA
ENDBRANCH   9  12
ENDBRANCH   1   8
BRANCH   3  23
ATOM     23  C11 non d   1      -3.563   0.295   0.469  0.00  0.00     0.164 A 
ATOM     24  N4  non d   1      -3.163   1.134   1.436  0.00  0.00    -0.129 NA
ATOM     25  N5  non d   1      -4.226   1.640   2.061  0.00  0.00    -0.134 NA
ATOM     26  C12 non d   1      -5.327   1.113   1.481  0.00  0.00     0.130 A 
ATOM     27  N6  non d   1      -4.883   0.281   0.495  0.00  0.00    -0.316 N 
ATOM     28  C17 non d   1      -6.739   1.393   1.853  0.00  0.00     0.081 C 
ATOM     29  C13 non d   1      -5.662  -0.528  -0.424  0.00  0.00     0.132 C 
ATOM     30  C14 non d   1      -6.593  -1.464   0.350  0.00  0.00     0.020 C 
ATOM     31  C15 non d   1      -7.787  -0.649   0.847  0.00  0.00     0.002 C 
ATOM     32  C16 non d   1      -7.432   0.069   2.145  0.00  0.00     0.008 C 
ENDBRANCH   3  23
TORSDOF 3
