REMARK  7 active torsions:
REMARK  status: ('A' for Active; 'I' for Inactive)
REMARK    1  A    between atoms: O2_2  and  C3_3 
REMARK    2  A    between atoms: C6_6  and  C7_7 
REMARK    3  A    between atoms: C7_7  and  N8_8 
REMARK    4  A    between atoms: C15_15  and  C16_16 
REMARK    5  A    between atoms: C16_16  and  C17_17 
REMARK    6  A    between atoms: C17_17  and  N18_18 
REMARK       I    between atoms: N18_18  and  C19_19 
REMARK    7  A    between atoms: C19_19  and  C21_21 
ROOT
ATOM      1  N8  ZIN A   1      -5.292  -3.072   1.401  0.00  0.00    -0.380 N 
ATOM      2  H9  ZIN A   1      -4.520  -3.636   1.722  0.00  0.00     0.410 HD
ATOM      3  C10 ZIN A   1      -5.362  -1.897   2.241  0.00  0.00     0.260 C 
ATOM      4  C11 ZIN A   1      -5.254  -2.279   3.727  0.00  0.00     0.220 C 
ATOM      5  C12 ZIN A   1      -6.622  -2.788   4.147  0.00  0.00     0.140 A 
ATOM      6  N13 ZIN A   1      -7.434  -2.283   5.024  0.00  0.00    -0.250 NA
ATOM      7  N14 ZIN A   1      -8.499  -3.009   5.085  0.00  0.00    -0.270 NA
ATOM      8  C15 ZIN A   1      -8.402  -4.010   4.246  0.00  0.00     0.210 A 
ATOM      9  N27 ZIN A   1      -7.208  -3.892   3.637  0.00  0.00    -0.490 N 
ATOM     10  C28 ZIN A   1      -6.603  -4.764   2.613  0.00  0.00     0.360 C 
ATOM     11  C29 ZIN A   1      -6.462  -3.918   1.335  0.00  0.00     0.270 C 
ENDROOT
BRANCH   1  12
ATOM     12  C7  ZIN A   1      -4.981  -2.629   0.035  0.00  0.00     0.320 C 
BRANCH  12  13
ATOM     13  C6  ZIN A   1      -3.648  -1.927   0.026  0.00  0.00    -0.200 A 
ATOM     14  C5  ZIN A   1      -3.596  -0.545   0.027  0.00  0.00     0.090 A 
ATOM     15  C4  ZIN A   1      -2.374   0.101   0.019  0.00  0.00    -0.070 A 
ATOM     16  C3  ZIN A   1      -1.200  -0.637   0.010  0.00  0.00     0.170 A 
ATOM     17  C32 ZIN A   1      -1.255  -2.024   0.003  0.00  0.00    -0.110 A 
ATOM     18  C30 ZIN A   1      -2.479  -2.665   0.016  0.00  0.00    -0.030 A 
ATOM     19  C33 ZIN A   1       0.018  -2.829  -0.008  0.00  0.00     0.110 C 
ATOM     20  C31 ZIN A   1      -2.539  -4.171   0.015  0.00  0.00     0.100 C 
BRANCH  16  21
ATOM     21  O2  ZIN A   1       0.002  -0.004   0.002  0.00  0.00    -0.300 OA
ATOM     22  C1  ZIN A   1      -0.017   1.425   0.010  0.00  0.00     0.250 C 
ENDBRANCH  16  21
ENDBRANCH  12  13
ENDBRANCH   1  12
BRANCH   8  23
ATOM     23  C16 ZIN A   1      -9.429  -5.087   4.009  0.00  0.00     0.170 C 
BRANCH  23  24
ATOM     24  C17 ZIN A   1     -10.383  -4.646   2.897  0.00  0.00     0.270 C 
BRANCH  24  25
ATOM     25  N18 ZIN A   1     -11.381  -5.692   2.666  0.00  0.00    -0.730 N 
ATOM     26  C19 ZIN A   1     -12.331  -5.522   1.725  0.00  0.00     0.500 C 
ATOM     27  O20 ZIN A   1     -12.360  -4.502   1.070  0.00  0.00    -0.520 OA
ATOM     28  H49 ZIN A   1     -11.359  -6.508   3.190  0.00  0.00     0.400 HD
BRANCH  26  29
ATOM     29  C21 ZIN A   1     -13.358  -6.599   1.488  0.00  0.00     0.170 C 
ATOM     30  O26 ZIN A   1     -14.303  -6.160   0.504  0.00  0.00    -0.350 OA
ATOM     31  C25 ZIN A   1     -14.247  -7.022  -0.646  0.00  0.00     0.210 C 
ATOM     32  C24 ZIN A   1     -13.690  -8.368  -0.116  0.00  0.00     0.020 C 
ATOM     33  C23 ZIN A   1     -12.670  -7.868   0.943  0.00  0.00     0.030 C 
ENDBRANCH  26  29
ENDBRANCH  24  25
ENDBRANCH  23  24
ENDBRANCH   8  23
TORSDOF 7
