REMARK  4 active torsions:
REMARK  status: ('A' for Active; 'I' for Inactive)
REMARK    1  A    between atoms: N4_4  and  C5_5 
REMARK    2  A    between atoms: C14_14  and  C15_15 
REMARK       I    between atoms: C15_15  and  N17_17 
REMARK    3  A    between atoms: N17_17  and  C18_18 
REMARK    4  A    between atoms: C20_20  and  C21_21 
ROOT
ATOM      1  C15 <0> d   1       0.041  -2.212   4.639  0.00  0.00     0.600 C 
ATOM      2  O16 <0> d   1       0.514  -1.294   5.283  0.00  0.00    -0.490 OA
ATOM      3  N17 <0> d   1      -0.304  -3.360   5.256  0.00  0.00    -0.670 N 
ATOM      4  H45 <0> d   1      -0.749  -4.063   4.758  0.00  0.00     0.410 HD
ENDROOT
BRANCH   3   5
ATOM      5  C18 <0> d   1      -0.021  -3.537   6.615  0.00  0.00     0.120 A 
ATOM      6  C33 <0> d   1       0.274  -4.806   7.106  0.00  0.00     0.090 A 
ATOM      7  C32 <0> d   1       0.560  -4.984   8.448  0.00  0.00     0.020 A 
ATOM      8  F34 <0> d   1       0.293  -5.865   6.267  0.00  0.00    -0.130 F 
ATOM      9  C31 <0> d   1       0.542  -3.906   9.310  0.00  0.00     0.040 A 
ATOM     10  C20 <0> d   1       0.242  -2.631   8.828  0.00  0.00     0.000 A 
ATOM     11  C19 <0> d   1      -0.041  -2.450   7.474  0.00  0.00     0.110 A 
BRANCH  10  12
ATOM     12  C21 <0> d   1       0.222  -1.475   9.751  0.00  0.00     0.210 A 
ATOM     13  N30 <0> d   1       0.118  -1.521  11.111  0.00  0.00    -0.470 N 
ATOM     14  C24 <0> d   1       0.131  -0.229  11.532  0.00  0.00     0.190 A 
ATOM     15  C29 <0> d   1       0.035  -2.712  11.955  0.00  0.00     0.280 C 
ATOM     16  N23 <0> d   1       0.245   0.527  10.476  0.00  0.00    -0.290 NA
ATOM     17  C25 <0> d   1       0.012   0.222  12.966  0.00  0.00     0.160 C 
ATOM     18  N22 <0> d   1       0.297  -0.204   9.418  0.00  0.00    -0.270 NA
ATOM     19  C26 <0> d   1       0.964  -0.608  13.832  0.00  0.00     0.020 C 
ATOM     20  C27 <0> d   1       0.256  -1.875  14.302  0.00  0.00     0.020 C 
ATOM     21  C28 <0> d   1      -0.725  -2.368  13.240  0.00  0.00     0.030 C 
ENDBRANCH  10  12
ENDBRANCH   3   5
BRANCH   1  22
ATOM     22  C14 <0> d   1      -0.152  -2.070   3.193  0.00  0.00    -0.280 A 
ATOM     23  C13 <0> d   1       0.157  -0.974   2.484  0.00  0.00     0.200 A 
ATOM     24  C12 <0> d   1      -0.112  -1.054   1.111  0.00  0.00    -0.220 A 
ATOM     25  C2  <0> d   1      -0.018  -0.266  -0.079  0.00  0.00     0.150 A 
ATOM     26  C11 <0> d   1      -0.656  -2.271   0.736  0.00  0.00     0.030 A 
ATOM     27  C1  <0> d   1       0.515   1.141  -0.162  0.00  0.00     0.180 C 
ATOM     28  N3  <0> d   1      -0.463  -0.969  -1.077  0.00  0.00    -0.250 NA
ATOM     29  N4  <0> d   1      -0.871  -2.224  -0.616  0.00  0.00    -0.300 N 
ATOM     30  S35 <0> d   1      -0.818  -3.311   2.145  0.00  0.00     0.200 SA
BRANCH  29  31
ATOM     31  C5  <0> d   1      -1.407  -3.253  -1.401  0.00  0.00     0.150 A 
ATOM     32  C10 <0> d   1      -2.225  -2.951  -2.481  0.00  0.00     0.030 A 
ATOM     33  C9  <0> d   1      -2.746  -3.969  -3.257  0.00  0.00     0.040 A 
ATOM     34  C8  <0> d   1      -2.464  -5.287  -2.950  0.00  0.00     0.010 A 
ATOM     35  C7  <0> d   1      -1.654  -5.591  -1.872  0.00  0.00     0.050 A 
ATOM     36  C6  <0> d   1      -1.125  -4.579  -1.096  0.00  0.00     0.000 A 
ENDBRANCH  29  31
ENDBRANCH   1  22
TORSDOF 4
