REMARK  5 active torsions:
REMARK  status: ('A' for Active; 'I' for Inactive)
REMARK    1  A    between atoms: C2_2  and  N1_3 
REMARK    2  A    between atoms: C4_5  and  C5_6 
REMARK    3  A    between atoms: C9_11  and  O2_12 
REMARK    4  A    between atoms: O2_12  and  C10_13 
REMARK    5  A    between atoms: C10_13  and  C11_14 
ROOT
ATOM      1  C5  non d   1      -3.572   1.636  -0.841  0.00  0.00     0.055 C 
ATOM      2  C6  non d   1      -2.332   1.345  -0.432  0.00  0.00     0.128 A 
ATOM      3  O1  non d   1      -1.913   0.249   0.260  0.00  0.00    -0.306 OA
ATOM      4  C7  non d   1      -0.537   0.319   0.440  0.00  0.00     0.093 A 
ATOM      5  C8  non d   1       0.406  -0.578   1.048  0.00  0.00     0.075 A 
ATOM      6  C9  non d   1       1.646  -0.316   1.049  0.00  0.00     0.072 A 
ATOM      7  C19 non d   1       2.104   0.910   0.495  0.00  0.00     0.044 A 
ATOM      8  C20 non d   1       1.276   1.771  -0.054  0.00  0.00    -0.042 A 
ATOM      9  C21 non d   1       1.646   3.174  -0.431  0.00  0.00     0.049 C 
ATOM     10  C22 non d   1      -0.040   1.469  -0.115  0.00  0.00     0.057 A 
ATOM     11  C23 non d   1      -1.180   2.215  -0.702  0.00  0.00     0.219 A 
ATOM     12  O5  non d   1      -1.177   3.309  -1.261  0.00  0.00    -0.284 OA
ENDROOT
BRANCH   6  13
ATOM     13  O2  non d   1       2.684  -1.190   1.591  0.00  0.00    -0.346 OA
BRANCH  13  14
ATOM     14  C10 non d   1       3.279  -1.217   0.167  0.00  0.00     0.217 C 
BRANCH  14  15
ATOM     15  C11 non d   1       4.580  -1.612   0.064  0.00  0.00     0.002 A 
ATOM     16  C12 non d   1       5.392  -2.567   0.470  0.00  0.00     0.036 A 
ATOM     17  C13 non d   1       6.767  -2.442   0.234  0.00  0.00     0.035 A 
ATOM     18 Cl1  non d   1       7.836  -3.781   0.411  0.00  0.00    -0.084 Cl
ATOM     19  C14 non d   1       7.329  -1.308  -0.319  0.00  0.00     0.036 A 
ATOM     20  C15 non d   1       6.459  -0.260  -0.685  0.00  0.00     0.001 A 
ATOM     21  C16 non d   1       5.213  -0.416  -0.550  0.00  0.00     0.088 A 
ATOM     22  C18 non d   1       7.072   1.093  -1.035  0.00  0.00     0.212 C 
ATOM     23  O3  non d   1       4.389   0.552  -1.054  0.00  0.00    -0.325 OA
ATOM     24  C17 non d   1       4.999   1.693  -1.685  0.00  0.00     0.345 C 
ATOM     25  O4  non d   1       6.041   2.037  -0.765  0.00  0.00    -0.362 OA
ENDBRANCH  14  15
ENDBRANCH  13  14
ENDBRANCH   6  13
BRANCH   1  26
ATOM     26  C4  non d   1      -4.677   0.750  -0.613  0.00  0.00    -0.005 A 
ATOM     27  C3  non d   1      -5.707   1.430   0.163  0.00  0.00     0.103 A 
ATOM     28  N1  non d   1      -6.630   0.607   0.430  0.00  0.00    -0.356 N 
ATOM     29  C29 non d   1      -6.312  -0.563  -0.120  0.00  0.00     0.045 A 
ATOM     30  C28 non d   1      -7.059  -1.732  -0.026  0.00  0.00     0.030 A 
ATOM     31  C24 non d   1      -5.130  -0.504  -0.770  0.00  0.00     0.002 A 
ATOM     32  C27 non d   1      -6.474  -2.855  -0.589  0.00  0.00     0.002 A 
ATOM     33  C26 non d   1      -5.342  -2.800  -1.238  0.00  0.00     0.001 A 
ATOM     34  C25 non d   1      -4.642  -1.674  -1.390  0.00  0.00     0.014 A 
BRANCH  28  35
ATOM     35  C2  non d   1      -7.988   1.000   0.839  0.00  0.00     0.124 C 
ATOM     36  C1  non d   1      -8.403   0.255   2.036  0.00  0.00     0.027 C 
ENDBRANCH  28  35
ENDBRANCH   1  26
TORSDOF 5
