REMARK  9 active torsions:
REMARK  status: ('A' for Active; 'I' for Inactive)
REMARK    1  A    between atoms: O2_2  and  C3_3 
REMARK    2  A    between atoms: C5_5  and  N6_6 
REMARK    3  A    between atoms: N6_6  and  C7_7 
REMARK    4  A    between atoms: C7_7  and  C9_9 
REMARK    5  A    between atoms: C9_9  and  O12_11 
REMARK    6  A    between atoms: O12_11  and  C13_12 
REMARK    7  A    between atoms: C13_12  and  C15_14 
REMARK    8  A    between atoms: C17_16  and  S18_17 
REMARK    9  A    between atoms: C25_24  and  O26_25 
ROOT
ATOM      1  C7  ZIN A   1       2.090  -4.634   3.183  0.00  0.00     0.520 C 
ATOM      2  O8  ZIN A   1       2.595  -3.974   4.067  0.00  0.00    -0.480 OA
ENDROOT
BRANCH   1   3
ATOM      3  N6  ZIN A   1       1.386  -4.027   2.208  0.00  0.00    -0.670 N 
ATOM      4  H33 ZIN A   1       0.918  -4.558   1.544  0.00  0.00     0.420 HD
BRANCH   3   5
ATOM      5  C5  ZIN A   1       1.329  -2.630   2.151  0.00  0.00     0.220 A 
ATOM      6  C4  ZIN A   1       2.420  -1.873   2.555  0.00  0.00    -0.040 A 
ATOM      7  C3  ZIN A   1       2.363  -0.489   2.500  0.00  0.00     0.190 A 
ATOM      8  C28 ZIN A   1       1.213   0.140   2.046  0.00  0.00    -0.170 A 
ATOM      9  C25 ZIN A   1       0.124  -0.615   1.637  0.00  0.00     0.190 A 
ATOM     10  C24 ZIN A   1       0.180  -2.000   1.692  0.00  0.00    -0.070 A 
BRANCH   7  11
ATOM     11  O2  ZIN A   1       3.431   0.251   2.896  0.00  0.00    -0.310 OA
ATOM     12  C1  ZIN A   1       3.300   1.672   2.818  0.00  0.00     0.250 C 
ENDBRANCH   7  11
BRANCH   9  13
ATOM     13  O26 ZIN A   1      -1.000   0.002   1.188  0.00  0.00    -0.310 OA
ATOM     14  C27 ZIN A   1      -0.988   1.430   1.159  0.00  0.00     0.250 C 
ENDBRANCH   9  13
ENDBRANCH   3   5
ENDBRANCH   1   3
BRANCH   1  15
ATOM     15  C9  ZIN A   1       2.251  -6.132   3.176  0.00  0.00     0.190 C 
ATOM     16  C11 ZIN A   1       3.064  -6.552   1.950  0.00  0.00     0.080 C 
BRANCH  15  17
ATOM     17  O12 ZIN A   1       2.942  -6.551   4.382  0.00  0.00    -0.300 OA
BRANCH  17  18
ATOM     18  C13 ZIN A   1       2.649  -7.775   4.861  0.00  0.00     0.520 C 
ATOM     19  O14 ZIN A   1       1.839  -8.473   4.287  0.00  0.00    -0.460 OA
BRANCH  18  20
ATOM     20  C15 ZIN A   1       3.317  -8.269   6.089  0.00  0.00     0.180 A 
ATOM     21  C22 ZIN A   1       3.021  -9.537   6.596  0.00  0.00    -0.110 A 
ATOM     22  C21 ZIN A   1       3.676  -9.958   7.747  0.00  0.00     0.390 A 
ATOM     23 Cl23 ZIN A   1       1.873 -10.567   5.799  0.00  0.00     0.010 Cl
ATOM     24  N20 ZIN A   1       4.544  -9.149   8.328  0.00  0.00    -0.490 NA
ATOM     25  C17 ZIN A   1       4.800  -7.949   7.826  0.00  0.00     0.290 A 
ATOM     26  N16 ZIN A   1       4.203  -7.510   6.730  0.00  0.00    -0.440 NA
BRANCH  25  27
ATOM     27  S18 ZIN A   1       5.966  -6.909   8.641  0.00  0.00     0.040 SA
ATOM     28  C19 ZIN A   1       6.438  -7.986  10.017  0.00  0.00     0.140 C 
ENDBRANCH  25  27
ENDBRANCH  18  20
ENDBRANCH  17  18
ENDBRANCH  15  17
ENDBRANCH   1  15
TORSDOF 8
